 Process Information:
 Process Information:
 Process Information:
 Process Information:







 Model Input Parameters:  ROMS/TOMS version 3.2  
 Model Input Parameters:  ROMS/TOMS version 3.2  

                          
                          
 Model Input Parameters:  ROMS/TOMS version 3.2  
 Model Input Parameters:  ROMS/TOMS version 3.2  
                          
 -----------------------------------------------------------------------------
                          
 -----------------------------------------------------------------------------
 -----------------------------------------------------------------------------
 -----------------------------------------------------------------------------




 Benchmark Test, Idealized Southern Ocean, Large Grid
 Benchmark Test, Idealized Southern Ocean, Large Grid
 Benchmark Test, Idealized Southern Ocean, Large Grid
 Version adapted for spec, built without netcdf
 Benchmark Test, Idealized Southern Ocean, Large Grid
 Version adapted for spec, built without netcdf
 Version adapted for spec, built without netcdf



 Version adapted for spec, built without netcdf
 Operating system : 

 Operating system : 
 Operating system : 
 CPU/hardware     : 
 CPU/hardware     : 
 Operating system : 
 CPU/hardware     : 
 Compiler system  : 
 Compiler system  : 
 CPU/hardware     : 
 Compiler system  : 
 Compiler command : 
 Compiler command : 
 Compiler system  : 
 Compiler command : 
 Compiler flags   : 
 Compiler flags   : 
 Compiler command : 
 Compiler flags   : 

 Compiler flags   : 


 SVN Root URL  : https://www.myroms.org/svn/src/trunk

 SVN Root URL  : https://www.myroms.org/svn/src/trunk
 SVN Root URL  : https://www.myroms.org/svn/src/trunk
 SVN Revision  : 405M
 SVN Revision  : 405M
 SVN Revision  : 405M



 SVN Root URL  : https://www.myroms.org/svn/src/trunk
 Local Root    : 
 Local Root    : 
 Local Root    : 
 SVN Revision  : 405M
 Header Dir    : 
 Header Dir    : 

 Header Dir    : 
 Header file   : benchmark.h
 Header file   : benchmark.h
 Local Root    : 
 Header file   : benchmark.h
 Analytical Dir: 
 Analytical Dir: 
 Header Dir    : 
 Analytical Dir: 
 Header file   : benchmark.h
 Analytical Dir: 




 Resolution, Grid 01: 2048x0512x040,  Parallel Threads:  0,  Tiling: 000x000
 Resolution, Grid 01: 2048x0512x040,  Parallel Threads:  0,  Tiling: 000x000
 Resolution, Grid 01: 2048x0512x040,  Parallel Threads:  0,  Tiling: 000x000
 Resolution, Grid 01: 2048x0512x040,  Parallel Threads:  0,  Tiling: 000x000






 Physical Parameters, Grid: 01


 =============================
 Physical Parameters, Grid: 01
 Physical Parameters, Grid: 01
 Physical Parameters, Grid: 01

 =============================
 =============================
 =============================



        100  ntimes          Number of timesteps for 3-D equations.
        100  ntimes          Number of timesteps for 3-D equations.
        100  ntimes          Number of timesteps for 3-D equations.
        100  ntimes          Number of timesteps for 3-D equations.
     50.000  dt              Timestep size (s) for 3-D equations.
     50.000  dt              Timestep size (s) for 3-D equations.
     50.000  dt              Timestep size (s) for 3-D equations.
     50.000  dt              Timestep size (s) for 3-D equations.
         20  ndtfast         Number of timesteps for 2-D equations between
         20  ndtfast         Number of timesteps for 2-D equations between
         20  ndtfast         Number of timesteps for 2-D equations between
                               each 3D timestep.
         20  ndtfast         Number of timesteps for 2-D equations between
                               each 3D timestep.
          1  ERstr           Starting ensemble/perturbation run number.
          1  ERstr           Starting ensemble/perturbation run number.
          1  ERend           Ending ensemble/perturbation run number.
                               each 3D timestep.
                               each 3D timestep.
          1  ERend           Ending ensemble/perturbation run number.
          0  nrrec           Number of restart records to read from disk.
          1  ERstr           Starting ensemble/perturbation run number.
          0  nrrec           Number of restart records to read from disk.
          1  ERstr           Starting ensemble/perturbation run number.
          1  ERend           Ending ensemble/perturbation run number.
          1  ERend           Ending ensemble/perturbation run number.
          0  nrrec           Number of restart records to read from disk.
          0  nrrec           Number of restart records to read from disk.
          T  LcycleRST       Switch to recycle time-records in restart file.
          T  LcycleRST       Switch to recycle time-records in restart file.
       1000  nRST            Number of timesteps between the writing of data
                               into restart fields.
       1000  nRST            Number of timesteps between the writing of data
          T  LcycleRST       Switch to recycle time-records in restart file.
          T  LcycleRST       Switch to recycle time-records in restart file.
                               into restart fields.
          1  ninfo           Number of timesteps between print of information
       1000  nRST            Number of timesteps between the writing of data
       1000  nRST            Number of timesteps between the writing of data
          1  ninfo           Number of timesteps between print of information
                               to standard output.
                               into restart fields.
                               into restart fields.
                               to standard output.
          T  ldefout         Switch to create a new output NetCDF file(s).
          1  ninfo           Number of timesteps between print of information
          1  ninfo           Number of timesteps between print of information
          T  ldefout         Switch to create a new output NetCDF file(s).
                               to standard output.
       1000  nHIS            Number of timesteps between the writing fields
                               to standard output.
                               into history file.
       1000  nHIS            Number of timesteps between the writing fields
          T  ldefout         Switch to create a new output NetCDF file(s).
          T  ldefout         Switch to create a new output NetCDF file(s).
                               into history file.
       1000  nHIS            Number of timesteps between the writing fields
       1000  nHIS            Number of timesteps between the writing fields
                               into history file.
                               into history file.
 5.0000E+02  tnu2(01)        Horizontal, harmonic mixing coefficient (m2/s)
 5.0000E+02  tnu2(01)        Horizontal, harmonic mixing coefficient (m2/s)
                               for tracer 01: temp
 5.0000E+02  tnu2(01)        Horizontal, harmonic mixing coefficient (m2/s)
                               for tracer 01: temp
                               for tracer 01: temp
 5.0000E+02  tnu2(02)        Horizontal, harmonic mixing coefficient (m2/s)
 5.0000E+02  tnu2(02)        Horizontal, harmonic mixing coefficient (m2/s)
 5.0000E+02  tnu2(01)        Horizontal, harmonic mixing coefficient (m2/s)
                               for tracer 02: salt
                               for tracer 02: salt
                               for tracer 01: temp
 5.0000E+02  tnu2(02)        Horizontal, harmonic mixing coefficient (m2/s)
                               for tracer 02: salt
 5.0000E+02  tnu2(02)        Horizontal, harmonic mixing coefficient (m2/s)
 5.0000E+03  visc2           Horizontal, harmonic mixing coefficient (m2/s)
 5.0000E+03  visc2           Horizontal, harmonic mixing coefficient (m2/s)
                               for momentum.
                               for momentum.
                               for tracer 02: salt
 5.0000E+03  visc2           Horizontal, harmonic mixing coefficient (m2/s)
                               for momentum.
 1.0000E-05  Akt_bak(01)     Background vertical mixing coefficient (m2/s)
 1.0000E-05  Akt_bak(01)     Background vertical mixing coefficient (m2/s)
 5.0000E+03  visc2           Horizontal, harmonic mixing coefficient (m2/s)
 1.0000E-05  Akt_bak(01)     Background vertical mixing coefficient (m2/s)
                               for momentum.
                               for tracer 01: temp
                               for tracer 01: temp
                               for tracer 01: temp
 1.0000E-05  Akt_bak(02)     Background vertical mixing coefficient (m2/s)
 1.0000E-05  Akt_bak(02)     Background vertical mixing coefficient (m2/s)
 1.0000E-05  Akt_bak(01)     Background vertical mixing coefficient (m2/s)
 1.0000E-05  Akt_bak(02)     Background vertical mixing coefficient (m2/s)
                               for tracer 02: salt
                               for tracer 02: salt
                               for tracer 01: temp
                               for tracer 02: salt
 1.0000E-04  Akv_bak         Background vertical mixing coefficient (m2/s)
 1.0000E-04  Akv_bak         Background vertical mixing coefficient (m2/s)
                               for momentum.
 1.0000E-04  Akv_bak         Background vertical mixing coefficient (m2/s)
                               for momentum.
 1.0000E-05  Akt_bak(02)     Background vertical mixing coefficient (m2/s)
                               for momentum.
                               for tracer 02: salt
 1.0000E-04  Akv_bak         Background vertical mixing coefficient (m2/s)
                               for momentum.
 3.0000E-04  rdrg            Linear bottom drag coefficient (m/s).
 3.0000E-04  rdrg            Linear bottom drag coefficient (m/s).
 3.0000E-04  rdrg            Linear bottom drag coefficient (m/s).
 3.0000E-03  rdrg2           Quadratic bottom drag coefficient.
 3.0000E-03  rdrg2           Quadratic bottom drag coefficient.
 3.0000E-03  rdrg2           Quadratic bottom drag coefficient.
 3.0000E-04  rdrg            Linear bottom drag coefficient (m/s).
 2.0000E-02  Zob             Bottom roughness (m).
 2.0000E-02  Zob             Bottom roughness (m).
 2.0000E-02  Zob             Bottom roughness (m).
 3.0000E-03  rdrg2           Quadratic bottom drag coefficient.
 1.0000E+01  blk_ZQ          Height (m) of surface air humidity measurement.
 1.0000E+01  blk_ZQ          Height (m) of surface air humidity measurement.
 1.0000E+01  blk_ZQ          Height (m) of surface air humidity measurement.
 2.0000E-02  Zob             Bottom roughness (m).
 1.0000E+01  blk_ZT          Height (m) of surface air temperature measurement.
 1.0000E+01  blk_ZT          Height (m) of surface air temperature measurement.
 1.0000E+01  blk_ZT          Height (m) of surface air temperature measurement.
 1.0000E+01  blk_ZQ          Height (m) of surface air humidity measurement.
 1.0000E+01  blk_ZW          Height (m) of surface winds measurement.
 1.0000E+01  blk_ZW          Height (m) of surface winds measurement.
 1.0000E+01  blk_ZW          Height (m) of surface winds measurement.
          1  lmd_Jwt         Jerlov water type.
 1.0000E+01  blk_ZT          Height (m) of surface air temperature measurement.
          1  lmd_Jwt         Jerlov water type.
          1  lmd_Jwt         Jerlov water type.
          1  Vtransform      S-coordinate transformation equation.
 1.0000E+01  blk_ZW          Height (m) of surface winds measurement.
          1  Vtransform      S-coordinate transformation equation.
          1  Vtransform      S-coordinate transformation equation.
          1  Vstretching     S-coordinate stretching function.
          1  lmd_Jwt         Jerlov water type.
          1  Vstretching     S-coordinate stretching function.
          1  Vstretching     S-coordinate stretching function.
          1  Vtransform      S-coordinate transformation equation.
 5.0000E+00  theta_s         S-coordinate surface control parameter.
 5.0000E+00  theta_s         S-coordinate surface control parameter.
          1  Vstretching     S-coordinate stretching function.
 5.0000E+00  theta_s         S-coordinate surface control parameter.
 4.0000E-01  theta_b         S-coordinate bottom  control parameter.
 4.0000E-01  theta_b         S-coordinate bottom  control parameter.
 4.0000E-01  theta_b         S-coordinate bottom  control parameter.
 5.0000E+00  theta_s         S-coordinate surface control parameter.
 4.0000E-01  theta_b         S-coordinate bottom  control parameter.
    200.000  Tcline          S-coordinate surface/bottom layer width (m) used
    200.000  Tcline          S-coordinate surface/bottom layer width (m) used
    200.000  Tcline          S-coordinate surface/bottom layer width (m) used
                               in vertical coordinate stretching.
                               in vertical coordinate stretching.
                               in vertical coordinate stretching.
   1025.000  rho0            Mean density (kg/m3) for Boussinesq approximation.
   1025.000  rho0            Mean density (kg/m3) for Boussinesq approximation.
   1025.000  rho0            Mean density (kg/m3) for Boussinesq approximation.
    200.000  Tcline          S-coordinate surface/bottom layer width (m) used
      0.000  dstart          Time-stamp assigned to model initialization (days).
      0.000  dstart          Time-stamp assigned to model initialization (days).
      0.000  dstart          Time-stamp assigned to model initialization (days).
                               in vertical coordinate stretching.
   1025.000  rho0            Mean density (kg/m3) for Boussinesq approximation.
       0.00  time_ref        Reference time for units attribute (yyyymmdd.dd)
       0.00  time_ref        Reference time for units attribute (yyyymmdd.dd)
      0.000  dstart          Time-stamp assigned to model initialization (days).
       0.00  time_ref        Reference time for units attribute (yyyymmdd.dd)
 0.0000E+00  Tnudg(01)       Nudging/relaxation time scale (days)
 0.0000E+00  Tnudg(01)       Nudging/relaxation time scale (days)
 0.0000E+00  Tnudg(01)       Nudging/relaxation time scale (days)
                               for tracer 01: temp
       0.00  time_ref        Reference time for units attribute (yyyymmdd.dd)
                               for tracer 01: temp
                               for tracer 01: temp
 0.0000E+00  Tnudg(02)       Nudging/relaxation time scale (days)
 0.0000E+00  Tnudg(02)       Nudging/relaxation time scale (days)
                               for tracer 02: salt
 0.0000E+00  Tnudg(02)       Nudging/relaxation time scale (days)
                               for tracer 02: salt
 0.0000E+00  Tnudg(01)       Nudging/relaxation time scale (days)
                               for tracer 02: salt
 0.0000E+00  Znudg           Nudging/relaxation time scale (days)
                               for tracer 01: temp
 0.0000E+00  Znudg           Nudging/relaxation time scale (days)
                               for free-surface.
 0.0000E+00  Znudg           Nudging/relaxation time scale (days)
                               for free-surface.
                               for free-surface.
 0.0000E+00  Tnudg(02)       Nudging/relaxation time scale (days)
 0.0000E+00  M2nudg          Nudging/relaxation time scale (days)
 0.0000E+00  M2nudg          Nudging/relaxation time scale (days)
                               for tracer 02: salt
                               for 2D momentum.
 0.0000E+00  M2nudg          Nudging/relaxation time scale (days)
                               for 2D momentum.
                               for 2D momentum.
 0.0000E+00  Znudg           Nudging/relaxation time scale (days)
 0.0000E+00  M3nudg          Nudging/relaxation time scale (days)
 0.0000E+00  M3nudg          Nudging/relaxation time scale (days)
                               for free-surface.
                               for 3D momentum.
 0.0000E+00  M3nudg          Nudging/relaxation time scale (days)
                               for 3D momentum.
                               for 3D momentum.
 0.0000E+00  M2nudg          Nudging/relaxation time scale (days)
 0.0000E+00  obcfac          Factor between passive and active
                               for 2D momentum.
 0.0000E+00  obcfac          Factor between passive and active
                               open boundary conditions.
 0.0000E+00  obcfac          Factor between passive and active
                               open boundary conditions.
                               open boundary conditions.
 0.0000E+00  M3nudg          Nudging/relaxation time scale (days)
     10.000  T0              Background potential temperature (C) constant.
                               for 3D momentum.
     10.000  T0              Background potential temperature (C) constant.
     10.000  T0              Background potential temperature (C) constant.
     35.000  S0              Background salinity (PSU) constant.
 0.0000E+00  obcfac          Factor between passive and active
     35.000  S0              Background salinity (PSU) constant.
     35.000  S0              Background salinity (PSU) constant.
                               open boundary conditions.
      1.000  gamma2          Slipperiness variable: free-slip (1.0) or 
      1.000  gamma2          Slipperiness variable: free-slip (1.0) or 
                                                    no-slip (-1.0).
                                                    no-slip (-1.0).
      1.000  gamma2          Slipperiness variable: free-slip (1.0) or 
     10.000  T0              Background potential temperature (C) constant.
                                                    no-slip (-1.0).


 Output/Input Files:
 Output/Input Files:
     35.000  S0              Background salinity (PSU) constant.



 Output/Input Files:

      1.000  gamma2          Slipperiness variable: free-slip (1.0) or 
                                                    no-slip (-1.0).

             Output Restart File:  ocean_rst.nc
             Output Restart File:  ocean_rst.nc
 Output/Input Files:

             Output Restart File:  ocean_rst.nc
             Output Restart File:  ocean_rst.nc


 Activated C-preprocessing Options:
 Activated C-preprocessing Options:


 BENCHMARK           Benchmark Test, Idealized Southern Ocean, Large Grid

 BENCHMARK           Benchmark Test, Idealized Southern Ocean, Large Grid
 Activated C-preprocessing Options:

 ALBEDO              Shortwave radiation from albedo equation.
 ALBEDO              Shortwave radiation from albedo equation.
 ANA_BSFLUX          Analytical kinematic bottom salinity flux.
 ANA_BSFLUX          Analytical kinematic bottom salinity flux.
 BENCHMARK           Benchmark Test, Idealized Southern Ocean, Large Grid
 ANA_BTFLUX          Analytical kinematic bottom temperature flux.
 ANA_BTFLUX          Analytical kinematic bottom temperature flux.
 ANA_CLOUD           Analytical cloud fraction.
 ALBEDO              Shortwave radiation from albedo equation.
 ANA_CLOUD           Analytical cloud fraction.
 ANA_GRID            Analytical grid set-up.
 ANA_BSFLUX          Analytical kinematic bottom salinity flux.
 ANA_GRID            Analytical grid set-up.
 ANA_HUMIDITY        Analytical surface air humidity.
 ANA_BTFLUX          Analytical kinematic bottom temperature flux.
 ANA_HUMIDITY        Analytical surface air humidity.
 ANA_INITIAL         Analytical initial conditions.
 ANA_CLOUD           Analytical cloud fraction.
 ANA_INITIAL         Analytical initial conditions.
 ANA_PAIR            Analytical surface air pressure.

 ANA_GRID            Analytical grid set-up.
 ANA_PAIR            Analytical surface air pressure.
 ANA_RAIN            Analytical rain fall rate.
 Activated C-preprocessing Options:
 ANA_HUMIDITY        Analytical surface air humidity.
 ANA_RAIN            Analytical rain fall rate.

 ANA_SRFLUX          Analytical kinematic shortwave radiation flux.
 ANA_INITIAL         Analytical initial conditions.
 ANA_SRFLUX          Analytical kinematic shortwave radiation flux.
 ANA_SSFLUX          Analytical kinematic surface salinity flux.
 ANA_PAIR            Analytical surface air pressure.
 ANA_SSFLUX          Analytical kinematic surface salinity flux.
 BENCHMARK           Benchmark Test, Idealized Southern Ocean, Large Grid
 ANA_WINDS           Analytical surface wind components.
 ANA_RAIN            Analytical rain fall rate.
 ANA_WINDS           Analytical surface wind components.
 ASSUMED_SHAPE       Using assumed-shape arrays.
 ASSUMED_SHAPE       Using assumed-shape arrays.
 ANA_SRFLUX          Analytical kinematic shortwave radiation flux.
 ALBEDO              Shortwave radiation from albedo equation.
 BULK_FLUXES         Surface bulk fluxes parametererization.
 BULK_FLUXES         Surface bulk fluxes parametererization.
 ANA_SSFLUX          Analytical kinematic surface salinity flux.
 ANA_BSFLUX          Analytical kinematic bottom salinity flux.
 CURVGRID            Orthogonal curvilinear grid.
 CURVGRID            Orthogonal curvilinear grid.
 ANA_WINDS           Analytical surface wind components.
 ANA_BTFLUX          Analytical kinematic bottom temperature flux.
 DJ_GRADPS           Parabolic Splines density Jacobian (Shchepetkin, 2002).
 DJ_GRADPS           Parabolic Splines density Jacobian (Shchepetkin, 2002).
 ASSUMED_SHAPE       Using assumed-shape arrays.
 ANA_CLOUD           Analytical cloud fraction.
 DOUBLE_PRECISION    Double precision arithmetic.
 DOUBLE_PRECISION    Double precision arithmetic.
 BULK_FLUXES         Surface bulk fluxes parametererization.
 ANA_GRID            Analytical grid set-up.
 EW_PERIODIC         East-West periodic boundaries.
 EW_PERIODIC         East-West periodic boundaries.
 CURVGRID            Orthogonal curvilinear grid.
 ANA_HUMIDITY        Analytical surface air humidity.
 LMD_CONVEC          LMD convective mixing due to shear instability.
 DJ_GRADPS           Parabolic Splines density Jacobian (Shchepetkin, 2002).
 ANA_INITIAL         Analytical initial conditions.
 LMD_MIXING          Large/McWilliams/Doney interior mixing.
 DOUBLE_PRECISION    Double precision arithmetic.
 ANA_PAIR            Analytical surface air pressure.
 LMD_CONVEC          LMD convective mixing due to shear instability.
 LMD_NONLOCAL        LMD convective nonlocal transport.
 EW_PERIODIC         East-West periodic boundaries.
 ANA_RAIN            Analytical rain fall rate.
 LMD_MIXING          Large/McWilliams/Doney interior mixing.
 LMD_RIMIX           LMD diffusivity due to shear instability.
 ANA_SRFLUX          Analytical kinematic shortwave radiation flux.
 LMD_CONVEC          LMD convective mixing due to shear instability.
 LMD_NONLOCAL        LMD convective nonlocal transport.
 LMD_SKPP            KPP surface boundary layer mixing.
 ANA_SSFLUX          Analytical kinematic surface salinity flux.
 LMD_MIXING          Large/McWilliams/Doney interior mixing.
 LMD_RIMIX           LMD diffusivity due to shear instability.
 LONGWAVE            Compute net longwave radiation internally.
 ANA_WINDS           Analytical surface wind components.
 LMD_NONLOCAL        LMD convective nonlocal transport.
 LMD_SKPP            KPP surface boundary layer mixing.
 MIX_GEO_TS          Mixing of tracers along geopotential surfaces.
 ASSUMED_SHAPE       Using assumed-shape arrays.
 LMD_RIMIX           LMD diffusivity due to shear instability.
 LONGWAVE            Compute net longwave radiation internally.
 MIX_S_UV            Mixing of momentum along constant S-surfaces.
 BULK_FLUXES         Surface bulk fluxes parametererization.
 LMD_SKPP            KPP surface boundary layer mixing.
 MIX_GEO_TS          Mixing of tracers along geopotential surfaces.
 NONLINEAR           Nonlinear Model.
 CURVGRID            Orthogonal curvilinear grid.
 LONGWAVE            Compute net longwave radiation internally.
 MIX_S_UV            Mixing of momentum along constant S-surfaces.
 NONLIN_EOS          Nonlinear Equation of State for seawater.
 DJ_GRADPS           Parabolic Splines density Jacobian (Shchepetkin, 2002).
 MIX_GEO_TS          Mixing of tracers along geopotential surfaces.
 NONLINEAR           Nonlinear Model.
 MIX_S_UV            Mixing of momentum along constant S-surfaces.
 NORTHERN_WALL       Wall boundary at Northern edge.
 DOUBLE_PRECISION    Double precision arithmetic.
 NONLIN_EOS          Nonlinear Equation of State for seawater.
 NONLINEAR           Nonlinear Model.
 POWER_LAW           Power-law shape time-averaging barotropic filter.
 EW_PERIODIC         East-West periodic boundaries.
 NORTHERN_WALL       Wall boundary at Northern edge.
 NONLIN_EOS          Nonlinear Equation of State for seawater.
 PROFILE             Time profiling activated .
 LMD_CONVEC          LMD convective mixing due to shear instability.
 POWER_LAW           Power-law shape time-averaging barotropic filter.
 NORTHERN_WALL       Wall boundary at Northern edge.
 !RST_SINGLE         Double precision fields in restart NetCDF file.
 LMD_MIXING          Large/McWilliams/Doney interior mixing.
 PROFILE             Time profiling activated .
 POWER_LAW           Power-law shape time-averaging barotropic filter.
 SALINITY            Using salinity.
 LMD_NONLOCAL        LMD convective nonlocal transport.
 !RST_SINGLE         Double precision fields in restart NetCDF file.
 PROFILE             Time profiling activated .
 SOLAR_SOURCE        Solar Radiation Source Term.
 LMD_RIMIX           LMD diffusivity due to shear instability.
 SALINITY            Using salinity.
 !RST_SINGLE         Double precision fields in restart NetCDF file.
 SOLVE3D             Solving 3D Primitive Equations.
 LMD_SKPP            KPP surface boundary layer mixing.
 SOLAR_SOURCE        Solar Radiation Source Term.
 SALINITY            Using salinity.
 SOUTHERN_WALL       Wall boundary at Southern edge.
 LONGWAVE            Compute net longwave radiation internally.
 SOLVE3D             Solving 3D Primitive Equations.
 SOLAR_SOURCE        Solar Radiation Source Term.
 SPLINES             Conservative parabolic spline reconstruction.
 MIX_GEO_TS          Mixing of tracers along geopotential surfaces.
 SOUTHERN_WALL       Wall boundary at Southern edge.
 SOLVE3D             Solving 3D Primitive Equations.
 SPHERICAL           Spherical grid configuration.
 MIX_S_UV            Mixing of momentum along constant S-surfaces.
 SPLINES             Conservative parabolic spline reconstruction.
 SOUTHERN_WALL       Wall boundary at Southern edge.
 TS_U3HADVECTION     Third-order upstream horizontal advection of tracers.
 NONLINEAR           Nonlinear Model.
 SPHERICAL           Spherical grid configuration.
 SPLINES             Conservative parabolic spline reconstruction.
 TS_C4VADVECTION     Fourth-order centered vertical advection of tracers.
 NONLIN_EOS          Nonlinear Equation of State for seawater.
 TS_U3HADVECTION     Third-order upstream horizontal advection of tracers.
 SPHERICAL           Spherical grid configuration.
 TS_DIF2             Harmonic mixing of tracers.
 NORTHERN_WALL       Wall boundary at Northern edge.
 TS_C4VADVECTION     Fourth-order centered vertical advection of tracers.
 TS_U3HADVECTION     Third-order upstream horizontal advection of tracers.
 UV_ADV              Advection of momentum.
 POWER_LAW           Power-law shape time-averaging barotropic filter.
 TS_DIF2             Harmonic mixing of tracers.
 TS_C4VADVECTION     Fourth-order centered vertical advection of tracers.
 UV_COR              Coriolis term.
 PROFILE             Time profiling activated .
 UV_ADV              Advection of momentum.
 TS_DIF2             Harmonic mixing of tracers.
 UV_U3HADVECTION     Third-order upstream horizontal advection of 3D momentum.
 !RST_SINGLE         Double precision fields in restart NetCDF file.
 UV_COR              Coriolis term.
 UV_ADV              Advection of momentum.
 UV_C4VADVECTION     Fourth-order centered vertical advection of momentum.
 SALINITY            Using salinity.
 UV_U3HADVECTION     Third-order upstream horizontal advection of 3D momentum.
 UV_COR              Coriolis term.
 UV_QDRAG            Quadratic bottom stress.
 SOLAR_SOURCE        Solar Radiation Source Term.
 UV_C4VADVECTION     Fourth-order centered vertical advection of momentum.
 UV_U3HADVECTION     Third-order upstream horizontal advection of 3D momentum.
 UV_VIS2             Harmonic mixing of momentum.
 SOLVE3D             Solving 3D Primitive Equations.
 UV_QDRAG            Quadratic bottom stress.
 UV_C4VADVECTION     Fourth-order centered vertical advection of momentum.
 VAR_RHO_2D          Variable density barotropic mode.
 SOUTHERN_WALL       Wall boundary at Southern edge.
 UV_VIS2             Harmonic mixing of momentum.
 UV_QDRAG            Quadratic bottom stress.
 SPLINES             Conservative parabolic spline reconstruction.
 VAR_RHO_2D          Variable density barotropic mode.
 UV_VIS2             Harmonic mixing of momentum.
 SPHERICAL           Spherical grid configuration.
 VAR_RHO_2D          Variable density barotropic mode.
 TS_U3HADVECTION     Third-order upstream horizontal advection of tracers.
 TS_C4VADVECTION     Fourth-order centered vertical advection of tracers.
 TS_DIF2             Harmonic mixing of tracers.
 UV_ADV              Advection of momentum.
 UV_COR              Coriolis term.
 UV_U3HADVECTION     Third-order upstream horizontal advection of 3D momentum.
 UV_C4VADVECTION     Fourth-order centered vertical advection of momentum.
 UV_QDRAG            Quadratic bottom stress.
 UV_VIS2             Harmonic mixing of momentum.
 VAR_RHO_2D          Variable density barotropic mode.
