 Process Information:

 Process Information:

 Process Information:

 Process Information:

 Process Information:
 Process Information:
 Process Information:
 Process Information:





 Model Input Parameters:  ROMS/TOMS version 3.2  
                          
 -----------------------------------------------------------------------------

 Model Input Parameters:  ROMS/TOMS version 3.2  

                          
 -----------------------------------------------------------------------------
 Model Input Parameters:  ROMS/TOMS version 3.2  
                          
 -----------------------------------------------------------------------------





 Model Input Parameters:  ROMS/TOMS version 3.2  
 Model Input Parameters:  ROMS/TOMS version 3.2  
 Model Input Parameters:  ROMS/TOMS version 3.2  
                          
                          
 Model Input Parameters:  ROMS/TOMS version 3.2  
                          
 Model Input Parameters:  ROMS/TOMS version 3.2  
                          
 -----------------------------------------------------------------------------
 -----------------------------------------------------------------------------
 -----------------------------------------------------------------------------
 -----------------------------------------------------------------------------
                          
 -----------------------------------------------------------------------------

 Benchmark Test, Idealized Southern Ocean, Large Grid
 Version adapted for spec, built without netcdf

 Operating system : 
 CPU/hardware     : 
 Compiler system  : 
 Compiler command : 
 Compiler flags   : 



 SVN Root URL  : https://www.myroms.org/svn/src/trunk
 SVN Revision  : 405M

 Benchmark Test, Idealized Southern Ocean, Large Grid
 Benchmark Test, Idealized Southern Ocean, Large Grid
 Local Root    : 
 Version adapted for spec, built without netcdf
 Version adapted for spec, built without netcdf

 Header Dir    : 

 Operating system : 
 Header file   : benchmark.h
 Operating system : 
 CPU/hardware     : 
 Analytical Dir: 
 Compiler system  : 
 CPU/hardware     : 
 Compiler command : 
 Compiler system  : 
 Compiler flags   : 
 Compiler command : 

 Compiler flags   : 
 SVN Root URL  : https://www.myroms.org/svn/src/trunk


 SVN Revision  : 405M


 SVN Root URL  : https://www.myroms.org/svn/src/trunk
 Local Root    : 
 SVN Revision  : 405M
 Resolution, Grid 01: 2048x0512x040,  Parallel Threads:  0,  Tiling: 000x000
 Benchmark Test, Idealized Southern Ocean, Large Grid

 Header Dir    : 
 Version adapted for spec, built without netcdf
 Local Root    : 
 Header file   : benchmark.h

 Header Dir    : 

 Analytical Dir: 
 Header file   : benchmark.h

 Operating system : 
 Analytical Dir: 
 Physical Parameters, Grid: 01
 CPU/hardware     : 
 =============================
 Compiler system  : 


 Compiler command : 
 Compiler flags   : 


        100  ntimes          Number of timesteps for 3-D equations.
 Resolution, Grid 01: 2048x0512x040,  Parallel Threads:  0,  Tiling: 000x000
 SVN Root URL  : https://www.myroms.org/svn/src/trunk
 SVN Revision  : 405M

 Resolution, Grid 01: 2048x0512x040,  Parallel Threads:  0,  Tiling: 000x000
 Local Root    : 

 Header Dir    : 
 Header file   : benchmark.h


 Analytical Dir: 
 Physical Parameters, Grid: 01

 =============================
 Physical Parameters, Grid: 01

 =============================


        100  ntimes          Number of timesteps for 3-D equations.
        100  ntimes          Number of timesteps for 3-D equations.
 Resolution, Grid 01: 2048x0512x040,  Parallel Threads:  0,  Tiling: 000x000


 Physical Parameters, Grid: 01
 =============================

        100  ntimes          Number of timesteps for 3-D equations.

 Benchmark Test, Idealized Southern Ocean, Large Grid
 Version adapted for spec, built without netcdf


 Operating system : 
 Benchmark Test, Idealized Southern Ocean, Large Grid
 CPU/hardware     : 
 Version adapted for spec, built without netcdf
 Compiler system  : 


 Compiler command : 
 Operating system : 
 Compiler flags   : 
 CPU/hardware     : 
 Benchmark Test, Idealized Southern Ocean, Large Grid

 Compiler system  : 
 Version adapted for spec, built without netcdf
 SVN Root URL  : https://www.myroms.org/svn/src/trunk

 Compiler command : 

 SVN Revision  : 405M
 Compiler flags   : 

 Benchmark Test, Idealized Southern Ocean, Large Grid

 Operating system : 
 Local Root    : 
 Version adapted for spec, built without netcdf
 SVN Root URL  : https://www.myroms.org/svn/src/trunk
 CPU/hardware     : 

 Header Dir    : 
 SVN Revision  : 405M
 Compiler system  : 
 Header file   : benchmark.h

 Operating system : 
 Compiler command : 
 Analytical Dir: 
 Local Root    : 
 CPU/hardware     : 
 Compiler flags   : 
 Header Dir    : 
 Compiler system  : 

 Header file   : benchmark.h
 Compiler command : 
 SVN Root URL  : https://www.myroms.org/svn/src/trunk
 Compiler flags   : 
 Analytical Dir: 
 SVN Revision  : 405M



 SVN Root URL  : https://www.myroms.org/svn/src/trunk
 Local Root    : 
 SVN Revision  : 405M


 Header Dir    : 
 Resolution, Grid 01: 2048x0512x040,  Parallel Threads:  0,  Tiling: 000x000
 Local Root    : 
 Header file   : benchmark.h
 Header Dir    : 
 Analytical Dir: 
 Header file   : benchmark.h
 Resolution, Grid 01: 2048x0512x040,  Parallel Threads:  0,  Tiling: 000x000

 Analytical Dir: 

 Physical Parameters, Grid: 01
 =============================




 Physical Parameters, Grid: 01

 =============================
        100  ntimes          Number of timesteps for 3-D equations.

 Resolution, Grid 01: 2048x0512x040,  Parallel Threads:  0,  Tiling: 000x000
 Resolution, Grid 01: 2048x0512x040,  Parallel Threads:  0,  Tiling: 000x000
        100  ntimes          Number of timesteps for 3-D equations.



 Physical Parameters, Grid: 01

 =============================
 Physical Parameters, Grid: 01

 =============================

        100  ntimes          Number of timesteps for 3-D equations.
        100  ntimes          Number of timesteps for 3-D equations.
     50.000  dt              Timestep size (s) for 3-D equations.
         20  ndtfast         Number of timesteps for 2-D equations between
                               each 3D timestep.
          1  ERstr           Starting ensemble/perturbation run number.
          1  ERend           Ending ensemble/perturbation run number.
          0  nrrec           Number of restart records to read from disk.
          T  LcycleRST       Switch to recycle time-records in restart file.
       1000  nRST            Number of timesteps between the writing of data
                               into restart fields.
          1  ninfo           Number of timesteps between print of information
     50.000  dt              Timestep size (s) for 3-D equations.
     50.000  dt              Timestep size (s) for 3-D equations.
                               to standard output.
          T  ldefout         Switch to create a new output NetCDF file(s).
       1000  nHIS            Number of timesteps between the writing fields
                               into history file.
         20  ndtfast         Number of timesteps for 2-D equations between
                               each 3D timestep.
         20  ndtfast         Number of timesteps for 2-D equations between
          1  ERstr           Starting ensemble/perturbation run number.
                               each 3D timestep.
     50.000  dt              Timestep size (s) for 3-D equations.
          1  ERend           Ending ensemble/perturbation run number.
          1  ERstr           Starting ensemble/perturbation run number.
          0  nrrec           Number of restart records to read from disk.
 5.0000E+02  tnu2(01)        Horizontal, harmonic mixing coefficient (m2/s)
          1  ERend           Ending ensemble/perturbation run number.
                               for tracer 01: temp
          0  nrrec           Number of restart records to read from disk.
 5.0000E+02  tnu2(02)        Horizontal, harmonic mixing coefficient (m2/s)
          T  LcycleRST       Switch to recycle time-records in restart file.
                               for tracer 02: salt
       1000  nRST            Number of timesteps between the writing of data
         20  ndtfast         Number of timesteps for 2-D equations between
          T  LcycleRST       Switch to recycle time-records in restart file.
                               into restart fields.
                               each 3D timestep.
       1000  nRST            Number of timesteps between the writing of data
          1  ninfo           Number of timesteps between print of information
 5.0000E+03  visc2           Horizontal, harmonic mixing coefficient (m2/s)
                               into restart fields.
                               to standard output.
          1  ERstr           Starting ensemble/perturbation run number.
                               for momentum.
          1  ninfo           Number of timesteps between print of information
          T  ldefout         Switch to create a new output NetCDF file(s).
          1  ERend           Ending ensemble/perturbation run number.
                               to standard output.
     50.000  dt              Timestep size (s) for 3-D equations.
       1000  nHIS            Number of timesteps between the writing fields
          0  nrrec           Number of restart records to read from disk.
          T  ldefout         Switch to create a new output NetCDF file(s).
 1.0000E-05  Akt_bak(01)     Background vertical mixing coefficient (m2/s)
     50.000  dt              Timestep size (s) for 3-D equations.
                               into history file.
     50.000  dt              Timestep size (s) for 3-D equations.
       1000  nHIS            Number of timesteps between the writing fields
                               for tracer 01: temp
                               into history file.
 1.0000E-05  Akt_bak(02)     Background vertical mixing coefficient (m2/s)
          T  LcycleRST       Switch to recycle time-records in restart file.
                               for tracer 02: salt
       1000  nRST            Number of timesteps between the writing of data
                               into restart fields.
 1.0000E-04  Akv_bak         Background vertical mixing coefficient (m2/s)
                               for momentum.
          1  ninfo           Number of timesteps between print of information
         20  ndtfast         Number of timesteps for 2-D equations between
                               to standard output.
         20  ndtfast         Number of timesteps for 2-D equations between
                               each 3D timestep.
          T  ldefout         Switch to create a new output NetCDF file(s).
 5.0000E+02  tnu2(01)        Horizontal, harmonic mixing coefficient (m2/s)
         20  ndtfast         Number of timesteps for 2-D equations between
                               each 3D timestep.
 5.0000E+02  tnu2(01)        Horizontal, harmonic mixing coefficient (m2/s)
       1000  nHIS            Number of timesteps between the writing fields
                               each 3D timestep.
          1  ERstr           Starting ensemble/perturbation run number.
                               into history file.
 3.0000E-04  rdrg            Linear bottom drag coefficient (m/s).
                               for tracer 01: temp
          1  ERstr           Starting ensemble/perturbation run number.
                               for tracer 01: temp
          1  ERstr           Starting ensemble/perturbation run number.
          1  ERend           Ending ensemble/perturbation run number.
          1  ERend           Ending ensemble/perturbation run number.
     50.000  dt              Timestep size (s) for 3-D equations.
          1  ERend           Ending ensemble/perturbation run number.
          0  nrrec           Number of restart records to read from disk.
 3.0000E-03  rdrg2           Quadratic bottom drag coefficient.
          0  nrrec           Number of restart records to read from disk.
 5.0000E+02  tnu2(02)        Horizontal, harmonic mixing coefficient (m2/s)
          0  nrrec           Number of restart records to read from disk.
 5.0000E+02  tnu2(02)        Horizontal, harmonic mixing coefficient (m2/s)
 2.0000E-02  Zob             Bottom roughness (m).
                               for tracer 02: salt
                               for tracer 02: salt
 1.0000E+01  blk_ZQ          Height (m) of surface air humidity measurement.
          T  LcycleRST       Switch to recycle time-records in restart file.
 5.0000E+03  visc2           Horizontal, harmonic mixing coefficient (m2/s)
       1000  nRST            Number of timesteps between the writing of data
 5.0000E+02  tnu2(01)        Horizontal, harmonic mixing coefficient (m2/s)
          T  LcycleRST       Switch to recycle time-records in restart file.
                               for momentum.
 5.0000E+03  visc2           Horizontal, harmonic mixing coefficient (m2/s)
          T  LcycleRST       Switch to recycle time-records in restart file.
 1.0000E+01  blk_ZT          Height (m) of surface air temperature measurement.
                               for momentum.
                               into restart fields.
         20  ndtfast         Number of timesteps for 2-D equations between
       1000  nRST            Number of timesteps between the writing of data
                               for tracer 01: temp
 1.0000E-05  Akt_bak(01)     Background vertical mixing coefficient (m2/s)
       1000  nRST            Number of timesteps between the writing of data
                               each 3D timestep.
 1.0000E+01  blk_ZW          Height (m) of surface winds measurement.
          1  ninfo           Number of timesteps between print of information
                               into restart fields.
                               for tracer 01: temp
                               into restart fields.
          1  lmd_Jwt         Jerlov water type.
 5.0000E+02  tnu2(02)        Horizontal, harmonic mixing coefficient (m2/s)
 1.0000E-05  Akt_bak(01)     Background vertical mixing coefficient (m2/s)
                               to standard output.
          1  ninfo           Number of timesteps between print of information
          1  Vtransform      S-coordinate transformation equation.
          1  ERstr           Starting ensemble/perturbation run number.
          1  ninfo           Number of timesteps between print of information
 1.0000E-05  Akt_bak(02)     Background vertical mixing coefficient (m2/s)
                               for tracer 02: salt
                               to standard output.
          1  ERend           Ending ensemble/perturbation run number.
                               for tracer 01: temp
                               for tracer 02: salt
                               to standard output.
          T  ldefout         Switch to create a new output NetCDF file(s).
          0  nrrec           Number of restart records to read from disk.
          1  Vstretching     S-coordinate stretching function.
          T  ldefout         Switch to create a new output NetCDF file(s).
          T  ldefout         Switch to create a new output NetCDF file(s).
 1.0000E-04  Akv_bak         Background vertical mixing coefficient (m2/s)
       1000  nHIS            Number of timesteps between the writing fields
 5.0000E+03  visc2           Horizontal, harmonic mixing coefficient (m2/s)
 1.0000E-05  Akt_bak(02)     Background vertical mixing coefficient (m2/s)
       1000  nHIS            Number of timesteps between the writing fields
                               into history file.
                               for momentum.
                               into history file.
                               for tracer 02: salt
                               for momentum.
       1000  nHIS            Number of timesteps between the writing fields
 5.0000E+00  theta_s         S-coordinate surface control parameter.
                               into history file.
          T  LcycleRST       Switch to recycle time-records in restart file.
 1.0000E-04  Akv_bak         Background vertical mixing coefficient (m2/s)
 1.0000E-05  Akt_bak(01)     Background vertical mixing coefficient (m2/s)
 4.0000E-01  theta_b         S-coordinate bottom  control parameter.
                               for momentum.
       1000  nRST            Number of timesteps between the writing of data
                               for tracer 01: temp
                               into restart fields.
 3.0000E-04  rdrg            Linear bottom drag coefficient (m/s).
 1.0000E-05  Akt_bak(02)     Background vertical mixing coefficient (m2/s)
          1  ninfo           Number of timesteps between print of information
                               to standard output.
                               for tracer 02: salt
    200.000  Tcline          S-coordinate surface/bottom layer width (m) used
 3.0000E-04  rdrg            Linear bottom drag coefficient (m/s).
 3.0000E-03  rdrg2           Quadratic bottom drag coefficient.
          T  ldefout         Switch to create a new output NetCDF file(s).
                               in vertical coordinate stretching.
 5.0000E+02  tnu2(01)        Horizontal, harmonic mixing coefficient (m2/s)
 1.0000E-04  Akv_bak         Background vertical mixing coefficient (m2/s)
 5.0000E+02  tnu2(01)        Horizontal, harmonic mixing coefficient (m2/s)
 3.0000E-03  rdrg2           Quadratic bottom drag coefficient.
 2.0000E-02  Zob             Bottom roughness (m).
                               for momentum.
       1000  nHIS            Number of timesteps between the writing fields
   1025.000  rho0            Mean density (kg/m3) for Boussinesq approximation.
                               for tracer 01: temp
                               into history file.
 2.0000E-02  Zob             Bottom roughness (m).
 5.0000E+02  tnu2(01)        Horizontal, harmonic mixing coefficient (m2/s)
                               for tracer 01: temp
 1.0000E+01  blk_ZQ          Height (m) of surface air humidity measurement.
      0.000  dstart          Time-stamp assigned to model initialization (days).
 5.0000E+02  tnu2(02)        Horizontal, harmonic mixing coefficient (m2/s)
                               for tracer 01: temp
 1.0000E+01  blk_ZQ          Height (m) of surface air humidity measurement.
 1.0000E+01  blk_ZT          Height (m) of surface air temperature measurement.
 3.0000E-04  rdrg            Linear bottom drag coefficient (m/s).
                               for tracer 02: salt
 5.0000E+02  tnu2(02)        Horizontal, harmonic mixing coefficient (m2/s)
 1.0000E+01  blk_ZT          Height (m) of surface air temperature measurement.
 1.0000E+01  blk_ZW          Height (m) of surface winds measurement.
                               for tracer 02: salt
       0.00  time_ref        Reference time for units attribute (yyyymmdd.dd)
 5.0000E+02  tnu2(02)        Horizontal, harmonic mixing coefficient (m2/s)
 3.0000E-03  rdrg2           Quadratic bottom drag coefficient.
 1.0000E+01  blk_ZW          Height (m) of surface winds measurement.
          1  lmd_Jwt         Jerlov water type.
 5.0000E+03  visc2           Horizontal, harmonic mixing coefficient (m2/s)
                               for tracer 02: salt
                               for momentum.
          1  Vtransform      S-coordinate transformation equation.
 5.0000E+03  visc2           Horizontal, harmonic mixing coefficient (m2/s)
          1  lmd_Jwt         Jerlov water type.
 2.0000E-02  Zob             Bottom roughness (m).
                               for momentum.
 0.0000E+00  Tnudg(01)       Nudging/relaxation time scale (days)
          1  Vstretching     S-coordinate stretching function.
          1  Vtransform      S-coordinate transformation equation.
 1.0000E-05  Akt_bak(01)     Background vertical mixing coefficient (m2/s)
 5.0000E+03  visc2           Horizontal, harmonic mixing coefficient (m2/s)
                               for tracer 01: temp
 1.0000E-05  Akt_bak(01)     Background vertical mixing coefficient (m2/s)
                               for tracer 01: temp
 5.0000E+02  tnu2(01)        Horizontal, harmonic mixing coefficient (m2/s)
 1.0000E+01  blk_ZQ          Height (m) of surface air humidity measurement.
 5.0000E+00  theta_s         S-coordinate surface control parameter.
 0.0000E+00  Tnudg(02)       Nudging/relaxation time scale (days)
          1  Vstretching     S-coordinate stretching function.
 1.0000E-05  Akt_bak(02)     Background vertical mixing coefficient (m2/s)
                               for momentum.
 5.0000E+00  theta_s         S-coordinate surface control parameter.
                               for tracer 01: temp
                               for tracer 01: temp
 1.0000E+01  blk_ZT          Height (m) of surface air temperature measurement.
                               for tracer 02: salt
 4.0000E-01  theta_b         S-coordinate bottom  control parameter.
                               for tracer 02: salt
 4.0000E-01  theta_b         S-coordinate bottom  control parameter.
 1.0000E-05  Akt_bak(01)     Background vertical mixing coefficient (m2/s)
 1.0000E-05  Akt_bak(02)     Background vertical mixing coefficient (m2/s)
 1.0000E+01  blk_ZW          Height (m) of surface winds measurement.
 5.0000E+02  tnu2(02)        Horizontal, harmonic mixing coefficient (m2/s)
                               for tracer 02: salt
 0.0000E+00  Znudg           Nudging/relaxation time scale (days)
    200.000  Tcline          S-coordinate surface/bottom layer width (m) used
                               for tracer 01: temp
                               for free-surface.
 1.0000E-04  Akv_bak         Background vertical mixing coefficient (m2/s)
          1  lmd_Jwt         Jerlov water type.
                               for tracer 02: salt
                               for momentum.
 1.0000E-05  Akt_bak(02)     Background vertical mixing coefficient (m2/s)
          1  Vtransform      S-coordinate transformation equation.
                               in vertical coordinate stretching.
 1.0000E-04  Akv_bak         Background vertical mixing coefficient (m2/s)
    200.000  Tcline          S-coordinate surface/bottom layer width (m) used
 0.0000E+00  M2nudg          Nudging/relaxation time scale (days)
                               for tracer 02: salt
                               in vertical coordinate stretching.
                               for 2D momentum.
   1025.000  rho0            Mean density (kg/m3) for Boussinesq approximation.
          1  Vstretching     S-coordinate stretching function.
                               for momentum.
 5.0000E+03  visc2           Horizontal, harmonic mixing coefficient (m2/s)
 3.0000E-04  rdrg            Linear bottom drag coefficient (m/s).
   1025.000  rho0            Mean density (kg/m3) for Boussinesq approximation.
                               for momentum.
 5.0000E+00  theta_s         S-coordinate surface control parameter.
 1.0000E-04  Akv_bak         Background vertical mixing coefficient (m2/s)
 0.0000E+00  M3nudg          Nudging/relaxation time scale (days)
 3.0000E-03  rdrg2           Quadratic bottom drag coefficient.
      0.000  dstart          Time-stamp assigned to model initialization (days).
                               for 3D momentum.
      0.000  dstart          Time-stamp assigned to model initialization (days).
                               for momentum.
 4.0000E-01  theta_b         S-coordinate bottom  control parameter.
 3.0000E-04  rdrg            Linear bottom drag coefficient (m/s).
 1.0000E-05  Akt_bak(01)     Background vertical mixing coefficient (m2/s)
 2.0000E-02  Zob             Bottom roughness (m).
 0.0000E+00  obcfac          Factor between passive and active
       0.00  time_ref        Reference time for units attribute (yyyymmdd.dd)
                               for tracer 01: temp
                               open boundary conditions.
 3.0000E-03  rdrg2           Quadratic bottom drag coefficient.
       0.00  time_ref        Reference time for units attribute (yyyymmdd.dd)
 1.0000E+01  blk_ZQ          Height (m) of surface air humidity measurement.
 3.0000E-04  rdrg            Linear bottom drag coefficient (m/s).
    200.000  Tcline          S-coordinate surface/bottom layer width (m) used
     10.000  T0              Background potential temperature (C) constant.
 2.0000E-02  Zob             Bottom roughness (m).
 1.0000E+01  blk_ZT          Height (m) of surface air temperature measurement.
 0.0000E+00  Tnudg(01)       Nudging/relaxation time scale (days)
 1.0000E-05  Akt_bak(02)     Background vertical mixing coefficient (m2/s)
                               in vertical coordinate stretching.
     35.000  S0              Background salinity (PSU) constant.
 1.0000E+01  blk_ZQ          Height (m) of surface air humidity measurement.
                               for tracer 02: salt
 3.0000E-03  rdrg2           Quadratic bottom drag coefficient.
 0.0000E+00  Tnudg(01)       Nudging/relaxation time scale (days)
                               for tracer 01: temp
   1025.000  rho0            Mean density (kg/m3) for Boussinesq approximation.
 1.0000E+01  blk_ZT          Height (m) of surface air temperature measurement.
 1.0000E-04  Akv_bak         Background vertical mixing coefficient (m2/s)
 2.0000E-02  Zob             Bottom roughness (m).
 1.0000E+01  blk_ZW          Height (m) of surface winds measurement.
                               for momentum.
      0.000  dstart          Time-stamp assigned to model initialization (days).
      1.000  gamma2          Slipperiness variable: free-slip (1.0) or 
                               for tracer 01: temp
 0.0000E+00  Tnudg(02)       Nudging/relaxation time scale (days)
 1.0000E+01  blk_ZW          Height (m) of surface winds measurement.
          1  lmd_Jwt         Jerlov water type.
 1.0000E+01  blk_ZQ          Height (m) of surface air humidity measurement.
                                                    no-slip (-1.0).
                               for tracer 02: salt
          1  Vtransform      S-coordinate transformation equation.
       0.00  time_ref        Reference time for units attribute (yyyymmdd.dd)
 1.0000E+01  blk_ZT          Height (m) of surface air temperature measurement.

          1  Vstretching     S-coordinate stretching function.
 0.0000E+00  Tnudg(02)       Nudging/relaxation time scale (days)
          1  lmd_Jwt         Jerlov water type.
 3.0000E-04  rdrg            Linear bottom drag coefficient (m/s).
 0.0000E+00  Znudg           Nudging/relaxation time scale (days)
 Output/Input Files:
 1.0000E+01  blk_ZW          Height (m) of surface winds measurement.
                               for tracer 02: salt
 3.0000E-03  rdrg2           Quadratic bottom drag coefficient.
 5.0000E+00  theta_s         S-coordinate surface control parameter.
          1  Vtransform      S-coordinate transformation equation.
          1  lmd_Jwt         Jerlov water type.
 0.0000E+00  Tnudg(01)       Nudging/relaxation time scale (days)
 0.0000E+00  Znudg           Nudging/relaxation time scale (days)
          1  Vstretching     S-coordinate stretching function.
          1  Vtransform      S-coordinate transformation equation.
                               for tracer 01: temp
                               for free-surface.

 2.0000E-02  Zob             Bottom roughness (m).
 4.0000E-01  theta_b         S-coordinate bottom  control parameter.
                               for free-surface.
          1  Vstretching     S-coordinate stretching function.
 5.0000E+00  theta_s         S-coordinate surface control parameter.
 0.0000E+00  Tnudg(02)       Nudging/relaxation time scale (days)
 0.0000E+00  M2nudg          Nudging/relaxation time scale (days)
             Output Restart File:  ocean_rst.nc
 1.0000E+01  blk_ZQ          Height (m) of surface air humidity measurement.
 0.0000E+00  M2nudg          Nudging/relaxation time scale (days)
 4.0000E-01  theta_b         S-coordinate bottom  control parameter.
                               for tracer 02: salt
                               for 2D momentum.
    200.000  Tcline          S-coordinate surface/bottom layer width (m) used
 5.0000E+00  theta_s         S-coordinate surface control parameter.
                               for 2D momentum.
                               in vertical coordinate stretching.
 1.0000E+01  blk_ZT          Height (m) of surface air temperature measurement.
 0.0000E+00  Znudg           Nudging/relaxation time scale (days)
 0.0000E+00  M3nudg          Nudging/relaxation time scale (days)
 0.0000E+00  M3nudg          Nudging/relaxation time scale (days)
 4.0000E-01  theta_b         S-coordinate bottom  control parameter.
                               for free-surface.
    200.000  Tcline          S-coordinate surface/bottom layer width (m) used
                               for 3D momentum.
 1.0000E+01  blk_ZW          Height (m) of surface winds measurement.
                               in vertical coordinate stretching.
   1025.000  rho0            Mean density (kg/m3) for Boussinesq approximation.
 0.0000E+00  M2nudg          Nudging/relaxation time scale (days)
                               for 3D momentum.
          1  lmd_Jwt         Jerlov water type.
                               for 2D momentum.
 0.0000E+00  obcfac          Factor between passive and active
    200.000  Tcline          S-coordinate surface/bottom layer width (m) used
      0.000  dstart          Time-stamp assigned to model initialization (days).
          1  Vtransform      S-coordinate transformation equation.
 0.0000E+00  M3nudg          Nudging/relaxation time scale (days)
   1025.000  rho0            Mean density (kg/m3) for Boussinesq approximation.
 0.0000E+00  obcfac          Factor between passive and active
                               for 3D momentum.
                               open boundary conditions.
                               in vertical coordinate stretching.
          1  Vstretching     S-coordinate stretching function.
                               open boundary conditions.
 0.0000E+00  obcfac          Factor between passive and active
       0.00  time_ref        Reference time for units attribute (yyyymmdd.dd)
     10.000  T0              Background potential temperature (C) constant.
      0.000  dstart          Time-stamp assigned to model initialization (days).
                               open boundary conditions.
   1025.000  rho0            Mean density (kg/m3) for Boussinesq approximation.
 5.0000E+00  theta_s         S-coordinate surface control parameter.
     10.000  T0              Background potential temperature (C) constant.
     35.000  S0              Background salinity (PSU) constant.
     10.000  T0              Background potential temperature (C) constant.
      0.000  dstart          Time-stamp assigned to model initialization (days).
 4.0000E-01  theta_b         S-coordinate bottom  control parameter.
      1.000  gamma2          Slipperiness variable: free-slip (1.0) or 
 0.0000E+00  Tnudg(01)       Nudging/relaxation time scale (days)
     35.000  S0              Background salinity (PSU) constant.
       0.00  time_ref        Reference time for units attribute (yyyymmdd.dd)
     35.000  S0              Background salinity (PSU) constant.
                                                    no-slip (-1.0).
                               for tracer 01: temp
      1.000  gamma2          Slipperiness variable: free-slip (1.0) or 
       0.00  time_ref        Reference time for units attribute (yyyymmdd.dd)
      1.000  gamma2          Slipperiness variable: free-slip (1.0) or 
    200.000  Tcline          S-coordinate surface/bottom layer width (m) used
                                                    no-slip (-1.0).
                                                    no-slip (-1.0).
                               in vertical coordinate stretching.

 0.0000E+00  Tnudg(02)       Nudging/relaxation time scale (days)
 0.0000E+00  Tnudg(01)       Nudging/relaxation time scale (days)


 0.0000E+00  Tnudg(01)       Nudging/relaxation time scale (days)
 Output/Input Files:
 Output/Input Files:
                               for tracer 02: salt
   1025.000  rho0            Mean density (kg/m3) for Boussinesq approximation.
 Output/Input Files:
                               for tracer 01: temp


                               for tracer 01: temp

 0.0000E+00  Znudg           Nudging/relaxation time scale (days)
      0.000  dstart          Time-stamp assigned to model initialization (days).
 0.0000E+00  Tnudg(02)       Nudging/relaxation time scale (days)
                               for free-surface.
 0.0000E+00  Tnudg(02)       Nudging/relaxation time scale (days)
                               for tracer 02: salt
             Output Restart File:  ocean_rst.nc
             Output Restart File:  ocean_rst.nc
             Output Restart File:  ocean_rst.nc

                               for tracer 02: salt
       0.00  time_ref        Reference time for units attribute (yyyymmdd.dd)
 0.0000E+00  M2nudg          Nudging/relaxation time scale (days)
 0.0000E+00  Znudg           Nudging/relaxation time scale (days)
 Activated C-preprocessing Options:
                               for 2D momentum.
                               for free-surface.

 0.0000E+00  Znudg           Nudging/relaxation time scale (days)
                               for free-surface.
 0.0000E+00  M3nudg          Nudging/relaxation time scale (days)
 0.0000E+00  M2nudg          Nudging/relaxation time scale (days)
 0.0000E+00  Tnudg(01)       Nudging/relaxation time scale (days)
                               for 3D momentum.
 BENCHMARK           Benchmark Test, Idealized Southern Ocean, Large Grid
 0.0000E+00  M2nudg          Nudging/relaxation time scale (days)
                               for 2D momentum.
                               for tracer 01: temp
                               for 2D momentum.
 0.0000E+00  obcfac          Factor between passive and active
 ALBEDO              Shortwave radiation from albedo equation.
 0.0000E+00  M3nudg          Nudging/relaxation time scale (days)
                               open boundary conditions.
 0.0000E+00  Tnudg(02)       Nudging/relaxation time scale (days)
                               for 3D momentum.
 0.0000E+00  M3nudg          Nudging/relaxation time scale (days)
 ANA_BSFLUX          Analytical kinematic bottom salinity flux.
                               for tracer 02: salt
     10.000  T0              Background potential temperature (C) constant.
                               for 3D momentum.
 0.0000E+00  obcfac          Factor between passive and active
 ANA_BTFLUX          Analytical kinematic bottom temperature flux.
                               open boundary conditions.
     35.000  S0              Background salinity (PSU) constant.
 0.0000E+00  obcfac          Factor between passive and active
 0.0000E+00  Znudg           Nudging/relaxation time scale (days)
 ANA_CLOUD           Analytical cloud fraction.
                               open boundary conditions.
                               for free-surface.
      1.000  gamma2          Slipperiness variable: free-slip (1.0) or 
     10.000  T0              Background potential temperature (C) constant.
 ANA_GRID            Analytical grid set-up.
                                                    no-slip (-1.0).
     10.000  T0              Background potential temperature (C) constant.
 0.0000E+00  M2nudg          Nudging/relaxation time scale (days)
     35.000  S0              Background salinity (PSU) constant.
 ANA_HUMIDITY        Analytical surface air humidity.
                               for 2D momentum.
     35.000  S0              Background salinity (PSU) constant.

 ANA_INITIAL         Analytical initial conditions.
      1.000  gamma2          Slipperiness variable: free-slip (1.0) or 
 Output/Input Files:

      1.000  gamma2          Slipperiness variable: free-slip (1.0) or 
                                                    no-slip (-1.0).

 Activated C-preprocessing Options:
                                                    no-slip (-1.0).



 0.0000E+00  M3nudg          Nudging/relaxation time scale (days)

 Activated C-preprocessing Options:
                               for 3D momentum.
 ANA_PAIR            Analytical surface air pressure.
             Output Restart File:  ocean_rst.nc
 Activated C-preprocessing Options:

 0.0000E+00  obcfac          Factor between passive and active

 Output/Input Files:
                               open boundary conditions.
 BENCHMARK           Benchmark Test, Idealized Southern Ocean, Large Grid


 ANA_RAIN            Analytical rain fall rate.
 Output/Input Files:
     10.000  T0              Background potential temperature (C) constant.
 BENCHMARK           Benchmark Test, Idealized Southern Ocean, Large Grid
 ANA_SRFLUX          Analytical kinematic shortwave radiation flux.
 ALBEDO              Shortwave radiation from albedo equation.

 BENCHMARK           Benchmark Test, Idealized Southern Ocean, Large Grid
 ANA_SSFLUX          Analytical kinematic surface salinity flux.
 ALBEDO              Shortwave radiation from albedo equation.
             Output Restart File:  ocean_rst.nc
     35.000  S0              Background salinity (PSU) constant.
 ANA_WINDS           Analytical surface wind components.
 ANA_BSFLUX          Analytical kinematic bottom salinity flux.
 ALBEDO              Shortwave radiation from albedo equation.
 ANA_BSFLUX          Analytical kinematic bottom salinity flux.
             Output Restart File:  ocean_rst.nc
 ANA_BTFLUX          Analytical kinematic bottom temperature flux.
 ANA_BSFLUX          Analytical kinematic bottom salinity flux.
 ANA_BTFLUX          Analytical kinematic bottom temperature flux.
 ASSUMED_SHAPE       Using assumed-shape arrays.
 ANA_CLOUD           Analytical cloud fraction.
      1.000  gamma2          Slipperiness variable: free-slip (1.0) or 
 ANA_BTFLUX          Analytical kinematic bottom temperature flux.
 ANA_CLOUD           Analytical cloud fraction.
 ANA_GRID            Analytical grid set-up.
 BULK_FLUXES         Surface bulk fluxes parametererization.
 ANA_CLOUD           Analytical cloud fraction.
                                                    no-slip (-1.0).
 ANA_HUMIDITY        Analytical surface air humidity.
 ANA_GRID            Analytical grid set-up.
 CURVGRID            Orthogonal curvilinear grid.
 ANA_GRID            Analytical grid set-up.

 ANA_INITIAL         Analytical initial conditions.
 ANA_HUMIDITY        Analytical surface air humidity.
 DJ_GRADPS           Parabolic Splines density Jacobian (Shchepetkin, 2002).
 Output/Input Files:
 ANA_HUMIDITY        Analytical surface air humidity.
 ANA_PAIR            Analytical surface air pressure.


 ANA_INITIAL         Analytical initial conditions.
 DOUBLE_PRECISION    Double precision arithmetic.
 ANA_INITIAL         Analytical initial conditions.
 ANA_RAIN            Analytical rain fall rate.
 ANA_PAIR            Analytical surface air pressure.
 EW_PERIODIC         East-West periodic boundaries.
 Activated C-preprocessing Options:
 ANA_PAIR            Analytical surface air pressure.
 ANA_RAIN            Analytical rain fall rate.

 LMD_CONVEC          LMD convective mixing due to shear instability.
 ANA_SRFLUX          Analytical kinematic shortwave radiation flux.
 ANA_SRFLUX          Analytical kinematic shortwave radiation flux.
             Output Restart File:  ocean_rst.nc
 LMD_MIXING          Large/McWilliams/Doney interior mixing.
 ANA_SSFLUX          Analytical kinematic surface salinity flux.
 ANA_SSFLUX          Analytical kinematic surface salinity flux.
 BENCHMARK           Benchmark Test, Idealized Southern Ocean, Large Grid
 ANA_RAIN            Analytical rain fall rate.
 LMD_NONLOCAL        LMD convective nonlocal transport.
 ANA_WINDS           Analytical surface wind components.
 ANA_WINDS           Analytical surface wind components.

 ANA_SRFLUX          Analytical kinematic shortwave radiation flux.
 ALBEDO              Shortwave radiation from albedo equation.
 ASSUMED_SHAPE       Using assumed-shape arrays.
 LMD_RIMIX           LMD diffusivity due to shear instability.
 ASSUMED_SHAPE       Using assumed-shape arrays.
 Activated C-preprocessing Options:
 ANA_BSFLUX          Analytical kinematic bottom salinity flux.
 ANA_SSFLUX          Analytical kinematic surface salinity flux.
 BULK_FLUXES         Surface bulk fluxes parametererization.

 ANA_BTFLUX          Analytical kinematic bottom temperature flux.
 BULK_FLUXES         Surface bulk fluxes parametererization.

 LMD_SKPP            KPP surface boundary layer mixing.
 ANA_CLOUD           Analytical cloud fraction.
 LONGWAVE            Compute net longwave radiation internally.
 ANA_WINDS           Analytical surface wind components.
 CURVGRID            Orthogonal curvilinear grid.
 CURVGRID            Orthogonal curvilinear grid.
 Activated C-preprocessing Options:
 BENCHMARK           Benchmark Test, Idealized Southern Ocean, Large Grid
 DJ_GRADPS           Parabolic Splines density Jacobian (Shchepetkin, 2002).
 ANA_GRID            Analytical grid set-up.
 MIX_GEO_TS          Mixing of tracers along geopotential surfaces.
 ASSUMED_SHAPE       Using assumed-shape arrays.
 DJ_GRADPS           Parabolic Splines density Jacobian (Shchepetkin, 2002).
 ALBEDO              Shortwave radiation from albedo equation.

 DOUBLE_PRECISION    Double precision arithmetic.
 MIX_S_UV            Mixing of momentum along constant S-surfaces.
 ANA_HUMIDITY        Analytical surface air humidity.
 BULK_FLUXES         Surface bulk fluxes parametererization.
 EW_PERIODIC         East-West periodic boundaries.
 NONLINEAR           Nonlinear Model.
 ANA_INITIAL         Analytical initial conditions.
 DOUBLE_PRECISION    Double precision arithmetic.
 LMD_CONVEC          LMD convective mixing due to shear instability.
 ANA_PAIR            Analytical surface air pressure.
 ANA_BSFLUX          Analytical kinematic bottom salinity flux.
 EW_PERIODIC         East-West periodic boundaries.
 BENCHMARK           Benchmark Test, Idealized Southern Ocean, Large Grid
 LMD_MIXING          Large/McWilliams/Doney interior mixing.
 CURVGRID            Orthogonal curvilinear grid.
 LMD_CONVEC          LMD convective mixing due to shear instability.
 NONLIN_EOS          Nonlinear Equation of State for seawater.
 LMD_NONLOCAL        LMD convective nonlocal transport.

 LMD_MIXING          Large/McWilliams/Doney interior mixing.
 ANA_RAIN            Analytical rain fall rate.
 ANA_BTFLUX          Analytical kinematic bottom temperature flux.
 ALBEDO              Shortwave radiation from albedo equation.
 DJ_GRADPS           Parabolic Splines density Jacobian (Shchepetkin, 2002).
 ANA_SRFLUX          Analytical kinematic shortwave radiation flux.
 ANA_CLOUD           Analytical cloud fraction.
 NORTHERN_WALL       Wall boundary at Northern edge.
 Activated C-preprocessing Options:
 ANA_SSFLUX          Analytical kinematic surface salinity flux.
 LMD_RIMIX           LMD diffusivity due to shear instability.
 LMD_NONLOCAL        LMD convective nonlocal transport.
 ANA_WINDS           Analytical surface wind components.
 ANA_BSFLUX          Analytical kinematic bottom salinity flux.
 DOUBLE_PRECISION    Double precision arithmetic.
 ANA_GRID            Analytical grid set-up.

 ANA_BTFLUX          Analytical kinematic bottom temperature flux.
 POWER_LAW           Power-law shape time-averaging barotropic filter.
 LMD_SKPP            KPP surface boundary layer mixing.
 LMD_RIMIX           LMD diffusivity due to shear instability.
 ANA_CLOUD           Analytical cloud fraction.
 ASSUMED_SHAPE       Using assumed-shape arrays.
 LONGWAVE            Compute net longwave radiation internally.
 BENCHMARK           Benchmark Test, Idealized Southern Ocean, Large Grid
 EW_PERIODIC         East-West periodic boundaries.
 ANA_HUMIDITY        Analytical surface air humidity.
 PROFILE             Time profiling activated .
 LMD_SKPP            KPP surface boundary layer mixing.
 ALBEDO              Shortwave radiation from albedo equation.
 ANA_INITIAL         Analytical initial conditions.
 ANA_GRID            Analytical grid set-up.
 LONGWAVE            Compute net longwave radiation internally.
 BULK_FLUXES         Surface bulk fluxes parametererization.
 ANA_BSFLUX          Analytical kinematic bottom salinity flux.
 MIX_GEO_TS          Mixing of tracers along geopotential surfaces.
 ANA_HUMIDITY        Analytical surface air humidity.
 LMD_CONVEC          LMD convective mixing due to shear instability.
 !RST_SINGLE         Double precision fields in restart NetCDF file.
 ANA_PAIR            Analytical surface air pressure.
 ANA_INITIAL         Analytical initial conditions.
 MIX_GEO_TS          Mixing of tracers along geopotential surfaces.
 SALINITY            Using salinity.
 ANA_RAIN            Analytical rain fall rate.
 CURVGRID            Orthogonal curvilinear grid.
 MIX_S_UV            Mixing of momentum along constant S-surfaces.
 SOLAR_SOURCE        Solar Radiation Source Term.
 MIX_S_UV            Mixing of momentum along constant S-surfaces.
 DJ_GRADPS           Parabolic Splines density Jacobian (Shchepetkin, 2002).
 ANA_BTFLUX          Analytical kinematic bottom temperature flux.
 SOLVE3D             Solving 3D Primitive Equations.
 LMD_MIXING          Large/McWilliams/Doney interior mixing.
 NONLINEAR           Nonlinear Model.
 DOUBLE_PRECISION    Double precision arithmetic.
 ANA_PAIR            Analytical surface air pressure.
 ANA_SRFLUX          Analytical kinematic shortwave radiation flux.
 NONLIN_EOS          Nonlinear Equation of State for seawater.
 EW_PERIODIC         East-West periodic boundaries.
 NONLINEAR           Nonlinear Model.
 ANA_CLOUD           Analytical cloud fraction.
 NORTHERN_WALL       Wall boundary at Northern edge.
 SOUTHERN_WALL       Wall boundary at Southern edge.
 LMD_NONLOCAL        LMD convective nonlocal transport.
 ANA_GRID            Analytical grid set-up.
 POWER_LAW           Power-law shape time-averaging barotropic filter.
 ANA_RAIN            Analytical rain fall rate.
 ANA_SSFLUX          Analytical kinematic surface salinity flux.
 ANA_HUMIDITY        Analytical surface air humidity.
 LMD_CONVEC          LMD convective mixing due to shear instability.
 ANA_SRFLUX          Analytical kinematic shortwave radiation flux.
 ANA_WINDS           Analytical surface wind components.
 NONLIN_EOS          Nonlinear Equation of State for seawater.
 ANA_INITIAL         Analytical initial conditions.
 LMD_MIXING          Large/McWilliams/Doney interior mixing.
 ANA_SSFLUX          Analytical kinematic surface salinity flux.
 ASSUMED_SHAPE       Using assumed-shape arrays.
 ANA_PAIR            Analytical surface air pressure.
 LMD_NONLOCAL        LMD convective nonlocal transport.
 SPLINES             Conservative parabolic spline reconstruction.
 LMD_RIMIX           LMD diffusivity due to shear instability.
 ANA_RAIN            Analytical rain fall rate.
 LMD_RIMIX           LMD diffusivity due to shear instability.
 PROFILE             Time profiling activated .
 LMD_SKPP            KPP surface boundary layer mixing.
 ANA_SRFLUX          Analytical kinematic shortwave radiation flux.
 LMD_SKPP            KPP surface boundary layer mixing.
 NORTHERN_WALL       Wall boundary at Northern edge.
 ANA_WINDS           Analytical surface wind components.
 BULK_FLUXES         Surface bulk fluxes parametererization.
 SPHERICAL           Spherical grid configuration.
 !RST_SINGLE         Double precision fields in restart NetCDF file.
 ASSUMED_SHAPE       Using assumed-shape arrays.
 LONGWAVE            Compute net longwave radiation internally.
 ANA_SSFLUX          Analytical kinematic surface salinity flux.
 SALINITY            Using salinity.
 BULK_FLUXES         Surface bulk fluxes parametererization.
 LONGWAVE            Compute net longwave radiation internally.
 POWER_LAW           Power-law shape time-averaging barotropic filter.
 SOLAR_SOURCE        Solar Radiation Source Term.
 CURVGRID            Orthogonal curvilinear grid.
 CURVGRID            Orthogonal curvilinear grid.
 TS_U3HADVECTION     Third-order upstream horizontal advection of tracers.
 SOLVE3D             Solving 3D Primitive Equations.
 MIX_GEO_TS          Mixing of tracers along geopotential surfaces.
 ANA_WINDS           Analytical surface wind components.
 MIX_GEO_TS          Mixing of tracers along geopotential surfaces.
 SOUTHERN_WALL       Wall boundary at Southern edge.
 PROFILE             Time profiling activated .
 ASSUMED_SHAPE       Using assumed-shape arrays.
 DJ_GRADPS           Parabolic Splines density Jacobian (Shchepetkin, 2002).
 DJ_GRADPS           Parabolic Splines density Jacobian (Shchepetkin, 2002).
 TS_C4VADVECTION     Fourth-order centered vertical advection of tracers.
 DOUBLE_PRECISION    Double precision arithmetic.
 MIX_S_UV            Mixing of momentum along constant S-surfaces.
 SPLINES             Conservative parabolic spline reconstruction.
 MIX_S_UV            Mixing of momentum along constant S-surfaces.
 NONLINEAR           Nonlinear Model.
 !RST_SINGLE         Double precision fields in restart NetCDF file.
 BULK_FLUXES         Surface bulk fluxes parametererization.
 DOUBLE_PRECISION    Double precision arithmetic.
 TS_DIF2             Harmonic mixing of tracers.
 EW_PERIODIC         East-West periodic boundaries.
 EW_PERIODIC         East-West periodic boundaries.
 SPHERICAL           Spherical grid configuration.
 UV_ADV              Advection of momentum.
 NONLINEAR           Nonlinear Model.
 NONLIN_EOS          Nonlinear Equation of State for seawater.
 LMD_CONVEC          LMD convective mixing due to shear instability.
 UV_COR              Coriolis term.
 SALINITY            Using salinity.
 NORTHERN_WALL       Wall boundary at Northern edge.
 CURVGRID            Orthogonal curvilinear grid.
 LMD_CONVEC          LMD convective mixing due to shear instability.
 TS_U3HADVECTION     Third-order upstream horizontal advection of tracers.
 NONLIN_EOS          Nonlinear Equation of State for seawater.
 LMD_MIXING          Large/McWilliams/Doney interior mixing.
 UV_U3HADVECTION     Third-order upstream horizontal advection of 3D momentum.
 TS_C4VADVECTION     Fourth-order centered vertical advection of tracers.
 NORTHERN_WALL       Wall boundary at Northern edge.
 SOLAR_SOURCE        Solar Radiation Source Term.
 LMD_NONLOCAL        LMD convective nonlocal transport.
 POWER_LAW           Power-law shape time-averaging barotropic filter.
 POWER_LAW           Power-law shape time-averaging barotropic filter.
 DJ_GRADPS           Parabolic Splines density Jacobian (Shchepetkin, 2002).
 LMD_MIXING          Large/McWilliams/Doney interior mixing.
 UV_C4VADVECTION     Fourth-order centered vertical advection of momentum.
 PROFILE             Time profiling activated .
 TS_DIF2             Harmonic mixing of tracers.
 SOLVE3D             Solving 3D Primitive Equations.
 LMD_RIMIX           LMD diffusivity due to shear instability.
 PROFILE             Time profiling activated .
 UV_ADV              Advection of momentum.
 SOUTHERN_WALL       Wall boundary at Southern edge.
 DOUBLE_PRECISION    Double precision arithmetic.
 LMD_SKPP            KPP surface boundary layer mixing.
 LMD_NONLOCAL        LMD convective nonlocal transport.
 SPLINES             Conservative parabolic spline reconstruction.
 EW_PERIODIC         East-West periodic boundaries.
 UV_QDRAG            Quadratic bottom stress.
 LMD_RIMIX           LMD diffusivity due to shear instability.
 !RST_SINGLE         Double precision fields in restart NetCDF file.
 SPHERICAL           Spherical grid configuration.
 LMD_CONVEC          LMD convective mixing due to shear instability.
 UV_VIS2             Harmonic mixing of momentum.
 !RST_SINGLE         Double precision fields in restart NetCDF file.
 TS_U3HADVECTION     Third-order upstream horizontal advection of tracers.
 LMD_MIXING          Large/McWilliams/Doney interior mixing.
 UV_COR              Coriolis term.
 LONGWAVE            Compute net longwave radiation internally.
 TS_C4VADVECTION     Fourth-order centered vertical advection of tracers.
 LMD_NONLOCAL        LMD convective nonlocal transport.
 LMD_SKPP            KPP surface boundary layer mixing.
 SALINITY            Using salinity.
 TS_DIF2             Harmonic mixing of tracers.
 LMD_RIMIX           LMD diffusivity due to shear instability.
 VAR_RHO_2D          Variable density barotropic mode.
 SOLAR_SOURCE        Solar Radiation Source Term.
 UV_ADV              Advection of momentum.
 LMD_SKPP            KPP surface boundary layer mixing.
 SALINITY            Using salinity.
 UV_U3HADVECTION     Third-order upstream horizontal advection of 3D momentum.
 UV_COR              Coriolis term.
 LONGWAVE            Compute net longwave radiation internally.
 MIX_GEO_TS          Mixing of tracers along geopotential surfaces.
 LONGWAVE            Compute net longwave radiation internally.
 SOLVE3D             Solving 3D Primitive Equations.
 SOLAR_SOURCE        Solar Radiation Source Term.
 UV_C4VADVECTION     Fourth-order centered vertical advection of momentum.
 MIX_GEO_TS          Mixing of tracers along geopotential surfaces.
 UV_U3HADVECTION     Third-order upstream horizontal advection of 3D momentum.
 MIX_GEO_TS          Mixing of tracers along geopotential surfaces.
 MIX_S_UV            Mixing of momentum along constant S-surfaces.
 UV_C4VADVECTION     Fourth-order centered vertical advection of momentum.
 SOUTHERN_WALL       Wall boundary at Southern edge.
 MIX_S_UV            Mixing of momentum along constant S-surfaces.
 SOLVE3D             Solving 3D Primitive Equations.
 UV_QDRAG            Quadratic bottom stress.
 UV_QDRAG            Quadratic bottom stress.
 NONLINEAR           Nonlinear Model.
 SOUTHERN_WALL       Wall boundary at Southern edge.
 MIX_S_UV            Mixing of momentum along constant S-surfaces.
 UV_VIS2             Harmonic mixing of momentum.
 UV_VIS2             Harmonic mixing of momentum.
 NONLIN_EOS          Nonlinear Equation of State for seawater.
 SPLINES             Conservative parabolic spline reconstruction.
 NONLINEAR           Nonlinear Model.
 VAR_RHO_2D          Variable density barotropic mode.
 NORTHERN_WALL       Wall boundary at Northern edge.
 NONLINEAR           Nonlinear Model.
 SPLINES             Conservative parabolic spline reconstruction.
 VAR_RHO_2D          Variable density barotropic mode.
 SPHERICAL           Spherical grid configuration.
 NONLIN_EOS          Nonlinear Equation of State for seawater.
 POWER_LAW           Power-law shape time-averaging barotropic filter.
 NONLIN_EOS          Nonlinear Equation of State for seawater.
 TS_U3HADVECTION     Third-order upstream horizontal advection of tracers.
 NORTHERN_WALL       Wall boundary at Northern edge.
 PROFILE             Time profiling activated .
 SPHERICAL           Spherical grid configuration.
 NORTHERN_WALL       Wall boundary at Northern edge.
 POWER_LAW           Power-law shape time-averaging barotropic filter.
 TS_C4VADVECTION     Fourth-order centered vertical advection of tracers.
 TS_U3HADVECTION     Third-order upstream horizontal advection of tracers.
 POWER_LAW           Power-law shape time-averaging barotropic filter.
 !RST_SINGLE         Double precision fields in restart NetCDF file.
 TS_DIF2             Harmonic mixing of tracers.
 PROFILE             Time profiling activated .
 PROFILE             Time profiling activated .
 SALINITY            Using salinity.
 UV_ADV              Advection of momentum.
 TS_C4VADVECTION     Fourth-order centered vertical advection of tracers.
 !RST_SINGLE         Double precision fields in restart NetCDF file.
 !RST_SINGLE         Double precision fields in restart NetCDF file.
 UV_COR              Coriolis term.
 SOLAR_SOURCE        Solar Radiation Source Term.
 TS_DIF2             Harmonic mixing of tracers.
 SALINITY            Using salinity.
 SALINITY            Using salinity.
 UV_U3HADVECTION     Third-order upstream horizontal advection of 3D momentum.
 SOLVE3D             Solving 3D Primitive Equations.
 UV_ADV              Advection of momentum.
 SOLAR_SOURCE        Solar Radiation Source Term.
 UV_C4VADVECTION     Fourth-order centered vertical advection of momentum.
 SOLAR_SOURCE        Solar Radiation Source Term.
 SOUTHERN_WALL       Wall boundary at Southern edge.
 UV_COR              Coriolis term.
 SOLVE3D             Solving 3D Primitive Equations.
 UV_QDRAG            Quadratic bottom stress.
 SOLVE3D             Solving 3D Primitive Equations.
 SPLINES             Conservative parabolic spline reconstruction.
 UV_U3HADVECTION     Third-order upstream horizontal advection of 3D momentum.
 SOUTHERN_WALL       Wall boundary at Southern edge.
 UV_VIS2             Harmonic mixing of momentum.
 SOUTHERN_WALL       Wall boundary at Southern edge.
 SPHERICAL           Spherical grid configuration.
 UV_C4VADVECTION     Fourth-order centered vertical advection of momentum.
 SPLINES             Conservative parabolic spline reconstruction.
 VAR_RHO_2D          Variable density barotropic mode.
 TS_U3HADVECTION     Third-order upstream horizontal advection of tracers.
 UV_QDRAG            Quadratic bottom stress.
 SPHERICAL           Spherical grid configuration.
 SPLINES             Conservative parabolic spline reconstruction.
 TS_C4VADVECTION     Fourth-order centered vertical advection of tracers.
 UV_VIS2             Harmonic mixing of momentum.
 TS_U3HADVECTION     Third-order upstream horizontal advection of tracers.
 SPHERICAL           Spherical grid configuration.
 TS_DIF2             Harmonic mixing of tracers.
 VAR_RHO_2D          Variable density barotropic mode.
 TS_C4VADVECTION     Fourth-order centered vertical advection of tracers.
 TS_U3HADVECTION     Third-order upstream horizontal advection of tracers.
 UV_ADV              Advection of momentum.
 TS_DIF2             Harmonic mixing of tracers.
 TS_C4VADVECTION     Fourth-order centered vertical advection of tracers.
 UV_COR              Coriolis term.
 UV_ADV              Advection of momentum.
 TS_DIF2             Harmonic mixing of tracers.
 UV_U3HADVECTION     Third-order upstream horizontal advection of 3D momentum.
 UV_COR              Coriolis term.
 UV_ADV              Advection of momentum.
 UV_C4VADVECTION     Fourth-order centered vertical advection of momentum.
 UV_U3HADVECTION     Third-order upstream horizontal advection of 3D momentum.
 UV_QDRAG            Quadratic bottom stress.
 UV_COR              Coriolis term.
 UV_C4VADVECTION     Fourth-order centered vertical advection of momentum.
 UV_VIS2             Harmonic mixing of momentum.
 UV_U3HADVECTION     Third-order upstream horizontal advection of 3D momentum.
 UV_QDRAG            Quadratic bottom stress.
 VAR_RHO_2D          Variable density barotropic mode.
 UV_C4VADVECTION     Fourth-order centered vertical advection of momentum.
 UV_VIS2             Harmonic mixing of momentum.
 UV_QDRAG            Quadratic bottom stress.
 VAR_RHO_2D          Variable density barotropic mode.
 UV_VIS2             Harmonic mixing of momentum.
 VAR_RHO_2D          Variable density barotropic mode.

 INITIAL: Configuring and initializing forward nonlinear model ...


 INITIAL: Configuring and initializing forward nonlinear model ...


 INITIAL: Configuring and initializing forward nonlinear model ...


 Vertical S-coordinate System: 

 level   S-coord     Cs-curve          at_hmin  over_slope     at_hmax

    40   0.0000000  -0.0000000          -0.000      -0.000      -0.000
    39  -0.0250000  -0.0017775          -5.533      -8.644     -11.754
    38  -0.0500000  -0.0037835         -11.135     -17.756     -24.377
    37  -0.0750000  -0.0060921         -16.828     -27.489     -38.150
    36  -0.1000000  -0.0087922         -22.638     -38.024     -53.410
    35  -0.1250000  -0.0119914         -28.597     -49.582     -70.567
    34  -0.1500000  -0.0158197         -34.746     -62.430     -90.115
    33  -0.1750000  -0.0204330         -41.130     -76.888    -112.646
    32  -0.2000000  -0.0260168         -47.805     -93.334    -138.864
    31  -0.2250000  -0.0327879         -54.836    -112.215    -169.594
    30  -0.2500000  -0.0409944         -62.298    -134.039    -205.779
    29  -0.2750000  -0.0509117         -70.274    -159.369    -248.465
    28  -0.3000000  -0.0628318         -78.850    -188.805    -298.761
    27  -0.3250000  -0.0770446         -88.113    -222.941    -357.769
    26  -0.3500000  -0.0938098         -98.143    -262.310    -426.477
    25  -0.3750000  -0.1133185        -108.996    -307.303    -505.610
    24  -0.4000000  -0.1356491        -120.695    -358.081    -595.466
    23  -0.4250000  -0.1607245        -133.217    -414.485    -695.753
    22  -0.4500000  -0.1882840        -146.485    -475.982    -805.479
    21  -0.4750000  -0.2178817        -160.365    -541.658    -922.951
    20  -0.5000000  -0.2489214        -174.676    -610.289   -1045.901
    19  -0.5250000  -0.2807264        -189.218    -680.489   -1171.760
    18  -0.5500000  -0.3126323        -203.790    -750.896   -1298.003
    17  -0.5750000  -0.3440788        -218.224    -820.362   -1422.499
    16  -0.6000000  -0.3746809        -232.404    -888.096   -1543.788
    15  -0.6250000  -0.4042644        -246.279    -953.742   -1661.205
    14  -0.6500000  -0.4328656        -259.860   -1017.374   -1774.889
    13  -0.6750000  -0.4607052        -273.212   -1079.446   -1885.680
    12  -0.7000000  -0.4881475        -286.444   -1140.702   -1994.960
    11  -0.7250000  -0.5156591        -299.698   -1202.101   -2104.505
    10  -0.7500000  -0.5437741        -313.132   -1264.737   -2216.342
     9  -0.7750000  -0.5730691        -326.921   -1329.792   -2332.663
     8  -0.8000000  -0.6041494        -341.245   -1398.506   -2455.768
     7  -0.8250000  -0.6376434        -356.293   -1472.169   -2588.045
     6  -0.8500000  -0.6742046        -372.261   -1552.119   -2731.978
     5  -0.8750000  -0.7145184        -389.356   -1639.763   -2890.170
     4  -0.9000000  -0.7593114        -407.793   -1736.588   -3065.383
     3  -0.9250000  -0.8093643        -427.809   -1844.197   -3260.585
     2  -0.9500000  -0.8655258        -449.658   -1964.328   -3478.998
     1  -0.9750000  -0.9287272        -473.618   -2098.891   -3724.163
     0  -1.0000000  -1.0000000        -500.000   -2250.000   -4000.000

 Time Splitting Weights: ndtfast =  20    nfast =  29

    Primary            Secondary            Accumulated to Current Step

  1 -0.0009651193358779  0.0500000000000000 -0.0009651193358779  0.0500000000000000
  2 -0.0013488780126037  0.0500482559667939 -0.0023139973484816  0.1000482559667939
  3 -0.0011514592651645  0.0501156998674241 -0.0034654566136460  0.1501639558342179
  4 -0.0003735756740661  0.0501732728306823 -0.0038390322877122  0.2003372286649002
  5  0.0009829200513762  0.0501919516143856 -0.0028561122363360  0.2505291802792858
  6  0.0029141799764308  0.0501428056118168  0.0000580677400948  0.3006719858911026
  7  0.0054132615310267  0.0499970966129952  0.0054713292711215  0.3506690825040978
  8  0.0084687837865132  0.0497264335364439  0.0139401130576347  0.4003955160405417
  9  0.0120633394191050  0.0493029943471183  0.0260034524767397  0.4496985103876600
 10  0.0161716623600090  0.0486998273761630  0.0421751148367486  0.4983983377638230
 11  0.0207585511322367  0.0478912442581626  0.0629336659689853  0.5462895820219856
 12  0.0257765478740990  0.0468533167015507  0.0887102138430843  0.5931428987235363
 13  0.0311633730493853  0.0455644893078458  0.1198735868924696  0.6387073880313821
 14  0.0368391158442262  0.0440063206553765  0.1567127027366958  0.6827137086867585
 15  0.0427031802506397  0.0421643648631652  0.1994158829873354  0.7248780735499237
 16  0.0486309868367616  0.0400292058506332  0.2480468698240970  0.7649072794005569
 17  0.0544704302037591  0.0375976565087951  0.3025173000278562  0.8025049359093520
 18  0.0600380921294285  0.0348741349986072  0.3625553921572847  0.8373790709079592
 19  0.0651152103984763  0.0318722303921358  0.4276706025557610  0.8692513013000949
 20  0.0694434033194839  0.0286164698722119  0.4971140058752449  0.8978677711723068
 21  0.0727201499285569  0.0251442997062377  0.5698341558038018  0.9230120708785445
 22  0.0745940258796570  0.0215082922098099  0.6444281816834588  0.9445203630883544
 23  0.0746596950216180  0.0177785909158270  0.7190878767050768  0.9622989540041814
 24  0.0724526566618460  0.0140456061647461  0.7915405333669228  0.9763445601689276
 25  0.0674437485167025  0.0104229733316538  0.8589842818836253  0.9867675335005814
 26  0.0590334053485720  0.0070507859058187  0.9180176872321973  0.9938183194064002
 27  0.0465456732896125  0.0040991156383901  0.9645633605218099  0.9979174350447904
 28  0.0292219798521905  0.0017718319739095  0.9937853403740005  0.9996892670186999
 29  0.0062146596259994  0.0003107329813000  0.9999999999999999  0.9999999999999999

 ndtfast, nfast =   20  29   nfast/ndtfast = 1.45000

 Centers of gravity and integrals (values must be 1, 1, approx 1/2, 1, 1):

    1.000000000000 1.060707743385 0.530353871693 1.000000000000 1.000000000000

 Power filter parameters, Fgamma, gamma =  0.28400   0.14200

 Vertical S-coordinate System: 

 level   S-coord     Cs-curve          at_hmin  over_slope     at_hmax

    40   0.0000000  -0.0000000          -0.000      -0.000      -0.000
    39  -0.0250000  -0.0017775          -5.533      -8.644     -11.754
    38  -0.0500000  -0.0037835         -11.135     -17.756     -24.377
    37  -0.0750000  -0.0060921         -16.828     -27.489     -38.150
    36  -0.1000000  -0.0087922         -22.638     -38.024     -53.410
    35  -0.1250000  -0.0119914         -28.597     -49.582     -70.567
    34  -0.1500000  -0.0158197         -34.746     -62.430     -90.115
    33  -0.1750000  -0.0204330         -41.130     -76.888    -112.646
    32  -0.2000000  -0.0260168         -47.805     -93.334    -138.864
    31  -0.2250000  -0.0327879         -54.836    -112.215    -169.594
    30  -0.2500000  -0.0409944         -62.298    -134.039    -205.779
    29  -0.2750000  -0.0509117         -70.274    -159.369    -248.465
    28  -0.3000000  -0.0628318         -78.850    -188.805    -298.761
    27  -0.3250000  -0.0770446         -88.113    -222.941    -357.769
    26  -0.3500000  -0.0938098         -98.143    -262.310    -426.477
    25  -0.3750000  -0.1133185        -108.996    -307.303    -505.610
    24  -0.4000000  -0.1356491        -120.695    -358.081    -595.466
    23  -0.4250000  -0.1607245        -133.217    -414.485    -695.753
    22  -0.4500000  -0.1882840        -146.485    -475.982    -805.479
    21  -0.4750000  -0.2178817        -160.365    -541.658    -922.951
    20  -0.5000000  -0.2489214        -174.676    -610.289   -1045.901
    19  -0.5250000  -0.2807264        -189.218    -680.489   -1171.760
    18  -0.5500000  -0.3126323        -203.790    -750.896   -1298.003
    17  -0.5750000  -0.3440788        -218.224    -820.362   -1422.499
    16  -0.6000000  -0.3746809        -232.404    -888.096   -1543.788
    15  -0.6250000  -0.4042644        -246.279    -953.742   -1661.205
    14  -0.6500000  -0.4328656        -259.860   -1017.374   -1774.889
    13  -0.6750000  -0.4607052        -273.212   -1079.446   -1885.680
    12  -0.7000000  -0.4881475        -286.444   -1140.702   -1994.960
    11  -0.7250000  -0.5156591        -299.698   -1202.101   -2104.505
    10  -0.7500000  -0.5437741        -313.132   -1264.737   -2216.342
     9  -0.7750000  -0.5730691        -326.921   -1329.792   -2332.663
     8  -0.8000000  -0.6041494        -341.245   -1398.506   -2455.768
     7  -0.8250000  -0.6376434        -356.293   -1472.169   -2588.045
     6  -0.8500000  -0.6742046        -372.261   -1552.119   -2731.978
     5  -0.8750000  -0.7145184        -389.356   -1639.763   -2890.170
     4  -0.9000000  -0.7593114        -407.793   -1736.588   -3065.383
     3  -0.9250000  -0.8093643        -427.809   -1844.197   -3260.585
     2  -0.9500000  -0.8655258        -449.658   -1964.328   -3478.998
     1  -0.9750000  -0.9287272        -473.618   -2098.891   -3724.163
     0  -1.0000000  -1.0000000        -500.000   -2250.000   -4000.000

 Time Splitting Weights: ndtfast =  20    nfast =  29

    Primary            Secondary            Accumulated to Current Step

  1 -0.0009651193358779  0.0500000000000000 -0.0009651193358779  0.0500000000000000
  2 -0.0013488780126037  0.0500482559667939 -0.0023139973484816  0.1000482559667939
  3 -0.0011514592651645  0.0501156998674241 -0.0034654566136460  0.1501639558342179
  4 -0.0003735756740661  0.0501732728306823 -0.0038390322877122  0.2003372286649002
  5  0.0009829200513762  0.0501919516143856 -0.0028561122363360  0.2505291802792858
  6  0.0029141799764308  0.0501428056118168  0.0000580677400948  0.3006719858911026
  7  0.0054132615310267  0.0499970966129952  0.0054713292711215  0.3506690825040978
  8  0.0084687837865132  0.0497264335364439  0.0139401130576347  0.4003955160405417
  9  0.0120633394191050  0.0493029943471183  0.0260034524767397  0.4496985103876600
 10  0.0161716623600090  0.0486998273761630  0.0421751148367486  0.4983983377638230
 11  0.0207585511322367  0.0478912442581626  0.0629336659689853  0.5462895820219856
 12  0.0257765478740990  0.0468533167015507  0.0887102138430843  0.5931428987235363
 13  0.0311633730493853  0.0455644893078458  0.1198735868924696  0.6387073880313821
 14  0.0368391158442262  0.0440063206553765  0.1567127027366958  0.6827137086867585
 15  0.0427031802506397  0.0421643648631652  0.1994158829873354  0.7248780735499237
 16  0.0486309868367616  0.0400292058506332  0.2480468698240970  0.7649072794005569
 17  0.0544704302037591  0.0375976565087951  0.3025173000278562  0.8025049359093520
 18  0.0600380921294285  0.0348741349986072  0.3625553921572847  0.8373790709079592
 19  0.0651152103984763  0.0318722303921358  0.4276706025557610  0.8692513013000949
 20  0.0694434033194839  0.0286164698722119  0.4971140058752449  0.8978677711723068
 21  0.0727201499285569  0.0251442997062377  0.5698341558038018  0.9230120708785445
 22  0.0745940258796570  0.0215082922098099  0.6444281816834588  0.9445203630883544
 23  0.0746596950216180  0.0177785909158270  0.7190878767050768  0.9622989540041814
 24  0.0724526566618460  0.0140456061647461  0.7915405333669228  0.9763445601689276
 25  0.0674437485167025  0.0104229733316538  0.8589842818836253  0.9867675335005814
 26  0.0590334053485720  0.0070507859058187  0.9180176872321973  0.9938183194064002
 27  0.0465456732896125  0.0040991156383901  0.9645633605218099  0.9979174350447904
 28  0.0292219798521905  0.0017718319739095  0.9937853403740005  0.9996892670186999
 29  0.0062146596259994  0.0003107329813000  0.9999999999999999  0.9999999999999999

 ndtfast, nfast =   20  29   nfast/ndtfast = 1.45000

 Centers of gravity and integrals (values must be 1, 1, approx 1/2, 1, 1):

    1.000000000000 1.060707743385 0.530353871693 1.000000000000 1.000000000000

 Power filter parameters, Fgamma, gamma =  0.28400   0.14200

 INITIAL: Configuring and initializing forward nonlinear model ...


 Vertical S-coordinate System: 

 level   S-coord     Cs-curve          at_hmin  over_slope     at_hmax

    40   0.0000000  -0.0000000          -0.000      -0.000      -0.000
    39  -0.0250000  -0.0017775          -5.533      -8.644     -11.754
    38  -0.0500000  -0.0037835         -11.135     -17.756     -24.377
    37  -0.0750000  -0.0060921         -16.828     -27.489     -38.150
    36  -0.1000000  -0.0087922         -22.638     -38.024     -53.410
    35  -0.1250000  -0.0119914         -28.597     -49.582     -70.567
    34  -0.1500000  -0.0158197         -34.746     -62.430     -90.115
    33  -0.1750000  -0.0204330         -41.130     -76.888    -112.646
    32  -0.2000000  -0.0260168         -47.805     -93.334    -138.864
    31  -0.2250000  -0.0327879         -54.836    -112.215    -169.594
    30  -0.2500000  -0.0409944         -62.298    -134.039    -205.779
    29  -0.2750000  -0.0509117         -70.274    -159.369    -248.465
    28  -0.3000000  -0.0628318         -78.850    -188.805    -298.761
    27  -0.3250000  -0.0770446         -88.113    -222.941    -357.769
    26  -0.3500000  -0.0938098         -98.143    -262.310    -426.477
    25  -0.3750000  -0.1133185        -108.996    -307.303    -505.610
    24  -0.4000000  -0.1356491        -120.695    -358.081    -595.466
    23  -0.4250000  -0.1607245        -133.217    -414.485    -695.753
    22  -0.4500000  -0.1882840        -146.485    -475.982    -805.479
    21  -0.4750000  -0.2178817        -160.365    -541.658    -922.951
    20  -0.5000000  -0.2489214        -174.676    -610.289   -1045.901
    19  -0.5250000  -0.2807264        -189.218    -680.489   -1171.760
    18  -0.5500000  -0.3126323        -203.790    -750.896   -1298.003
    17  -0.5750000  -0.3440788        -218.224    -820.362   -1422.499
    16  -0.6000000  -0.3746809        -232.404    -888.096   -1543.788
    15  -0.6250000  -0.4042644        -246.279    -953.742   -1661.205
    14  -0.6500000  -0.4328656        -259.860   -1017.374   -1774.889
    13  -0.6750000  -0.4607052        -273.212   -1079.446   -1885.680
    12  -0.7000000  -0.4881475        -286.444   -1140.702   -1994.960
    11  -0.7250000  -0.5156591        -299.698   -1202.101   -2104.505
    10  -0.7500000  -0.5437741        -313.132   -1264.737   -2216.342
     9  -0.7750000  -0.5730691        -326.921   -1329.792   -2332.663
     8  -0.8000000  -0.6041494        -341.245   -1398.506   -2455.768
     7  -0.8250000  -0.6376434        -356.293   -1472.169   -2588.045
     6  -0.8500000  -0.6742046        -372.261   -1552.119   -2731.978
     5  -0.8750000  -0.7145184        -389.356   -1639.763   -2890.170
     4  -0.9000000  -0.7593114        -407.793   -1736.588   -3065.383
     3  -0.9250000  -0.8093643        -427.809   -1844.197   -3260.585
     2  -0.9500000  -0.8655258        -449.658   -1964.328   -3478.998
     1  -0.9750000  -0.9287272        -473.618   -2098.891   -3724.163
     0  -1.0000000  -1.0000000        -500.000   -2250.000   -4000.000

 Time Splitting Weights: ndtfast =  20    nfast =  29

    Primary            Secondary            Accumulated to Current Step

  1 -0.0009651193358779  0.0500000000000000 -0.0009651193358779  0.0500000000000000
  2 -0.0013488780126037  0.0500482559667939 -0.0023139973484816  0.1000482559667939
  3 -0.0011514592651645  0.0501156998674241 -0.0034654566136460  0.1501639558342179
  4 -0.0003735756740661  0.0501732728306823 -0.0038390322877122  0.2003372286649002
  5  0.0009829200513762  0.0501919516143856 -0.0028561122363360  0.2505291802792858
  6  0.0029141799764308  0.0501428056118168  0.0000580677400948  0.3006719858911026
  7  0.0054132615310267  0.0499970966129952  0.0054713292711215  0.3506690825040978
  8  0.0084687837865132  0.0497264335364439  0.0139401130576347  0.4003955160405417
  9  0.0120633394191050  0.0493029943471183  0.0260034524767397  0.4496985103876600
 10  0.0161716623600090  0.0486998273761630  0.0421751148367486  0.4983983377638230
 11  0.0207585511322367  0.0478912442581626  0.0629336659689853  0.5462895820219856
 12  0.0257765478740990  0.0468533167015507  0.0887102138430843  0.5931428987235363
 13  0.0311633730493853  0.0455644893078458  0.1198735868924696  0.6387073880313821
 14  0.0368391158442262  0.0440063206553765  0.1567127027366958  0.6827137086867585
 15  0.0427031802506397  0.0421643648631652  0.1994158829873354  0.7248780735499237
 16  0.0486309868367616  0.0400292058506332  0.2480468698240970  0.7649072794005569
 17  0.0544704302037591  0.0375976565087951  0.3025173000278562  0.8025049359093520
 18  0.0600380921294285  0.0348741349986072  0.3625553921572847  0.8373790709079592
 19  0.0651152103984763  0.0318722303921358  0.4276706025557610  0.8692513013000949
 20  0.0694434033194839  0.0286164698722119  0.4971140058752449  0.8978677711723068
 21  0.0727201499285569  0.0251442997062377  0.5698341558038018  0.9230120708785445
 22  0.0745940258796570  0.0215082922098099  0.6444281816834588  0.9445203630883544
 23  0.0746596950216180  0.0177785909158270  0.7190878767050768  0.9622989540041814
 24  0.0724526566618460  0.0140456061647461  0.7915405333669228  0.9763445601689276
 25  0.0674437485167025  0.0104229733316538  0.8589842818836253  0.9867675335005814
 26  0.0590334053485720  0.0070507859058187  0.9180176872321973  0.9938183194064002
 27  0.0465456732896125  0.0040991156383901  0.9645633605218099  0.9979174350447904
 28  0.0292219798521905  0.0017718319739095  0.9937853403740005  0.9996892670186999
 29  0.0062146596259994  0.0003107329813000  0.9999999999999999  0.9999999999999999

 ndtfast, nfast =   20  29   nfast/ndtfast = 1.45000

 Centers of gravity and integrals (values must be 1, 1, approx 1/2, 1, 1):

    1.000000000000 1.060707743385 0.530353871693 1.000000000000 1.000000000000

 Power filter parameters, Fgamma, gamma =  0.28400   0.14200

 Vertical S-coordinate System: 

 level   S-coord     Cs-curve          at_hmin  over_slope     at_hmax

    40   0.0000000  -0.0000000          -0.000      -0.000      -0.000
    39  -0.0250000  -0.0017775          -5.533      -8.644     -11.754
    38  -0.0500000  -0.0037835         -11.135     -17.756     -24.377
    37  -0.0750000  -0.0060921         -16.828     -27.489     -38.150
    36  -0.1000000  -0.0087922         -22.638     -38.024     -53.410
    35  -0.1250000  -0.0119914         -28.597     -49.582     -70.567
    34  -0.1500000  -0.0158197         -34.746     -62.430     -90.115
    33  -0.1750000  -0.0204330         -41.130     -76.888    -112.646
    32  -0.2000000  -0.0260168         -47.805     -93.334    -138.864
    31  -0.2250000  -0.0327879         -54.836    -112.215    -169.594
    30  -0.2500000  -0.0409944         -62.298    -134.039    -205.779
    29  -0.2750000  -0.0509117         -70.274    -159.369    -248.465
    28  -0.3000000  -0.0628318         -78.850    -188.805    -298.761
    27  -0.3250000  -0.0770446         -88.113    -222.941    -357.769
    26  -0.3500000  -0.0938098         -98.143    -262.310    -426.477
    25  -0.3750000  -0.1133185        -108.996    -307.303    -505.610
    24  -0.4000000  -0.1356491        -120.695    -358.081    -595.466
    23  -0.4250000  -0.1607245        -133.217    -414.485    -695.753
    22  -0.4500000  -0.1882840        -146.485    -475.982    -805.479
    21  -0.4750000  -0.2178817        -160.365    -541.658    -922.951
    20  -0.5000000  -0.2489214        -174.676    -610.289   -1045.901
    19  -0.5250000  -0.2807264        -189.218    -680.489   -1171.760
    18  -0.5500000  -0.3126323        -203.790    -750.896   -1298.003
    17  -0.5750000  -0.3440788        -218.224    -820.362   -1422.499
    16  -0.6000000  -0.3746809        -232.404    -888.096   -1543.788
    15  -0.6250000  -0.4042644        -246.279    -953.742   -1661.205
    14  -0.6500000  -0.4328656        -259.860   -1017.374   -1774.889
    13  -0.6750000  -0.4607052        -273.212   -1079.446   -1885.680
    12  -0.7000000  -0.4881475        -286.444   -1140.702   -1994.960
    11  -0.7250000  -0.5156591        -299.698   -1202.101   -2104.505
[...]
     59     0 00:49:10  2.733644E-06  1.963034E+04  1.963034E+04  1.659944E+17
     64     0 00:53:20  3.075357E-06  1.963034E+04  1.963034E+04  1.659944E+17
     74     0 01:01:40  3.782992E-06  1.963034E+04  1.963034E+04  1.659944E+17
     80     0 01:06:40  4.221227E-06  1.963034E+04  1.963034E+04  1.659944E+17
     77     0 01:04:10  4.000959E-06  1.963034E+04  1.963034E+04  1.659944E+17
     66     0 00:55:00  3.214396E-06  1.963034E+04  1.963034E+04  1.659944E+17
     90     0 01:15:00  4.970707E-06  1.963034E+04  1.963034E+04  1.659944E+17
     60     0 00:50:00  2.801273E-06  1.963034E+04  1.963034E+04  1.659944E+17
     65     0 00:54:10  3.144741E-06  1.963034E+04  1.963034E+04  1.659944E+17
     75     0 01:02:30  3.855366E-06  1.963034E+04  1.963034E+04  1.659944E+17
     81     0 01:07:30  4.295169E-06  1.963034E+04  1.963034E+04  1.659944E+17
     91     0 01:15:50  5.046849E-06  1.963034E+04  1.963034E+04  1.659944E+17
     78     0 01:05:00  4.074114E-06  1.963034E+04  1.963034E+04  1.659944E+17
     67     0 00:55:50  3.284436E-06  1.963034E+04  1.963034E+04  1.659944E+17
     61     0 00:50:50  2.869250E-06  1.963034E+04  1.963034E+04  1.659944E+17
     66     0 00:55:00  3.214396E-06  1.963034E+04  1.963034E+04  1.659944E+17
     76     0 01:03:20  3.928014E-06  1.963034E+04  1.963034E+04  1.659944E+17
     82     0 01:08:20  4.369321E-06  1.963034E+04  1.963034E+04  1.659944E+17
     92     0 01:16:40  5.123144E-06  1.963034E+04  1.963034E+04  1.659944E+17
     79     0 01:05:50  4.147571E-06  1.963034E+04  1.963034E+04  1.659944E+17
     68     0 00:56:40  3.354747E-06  1.963034E+04  1.963034E+04  1.659944E+17
     62     0 00:51:40  2.937570E-06  1.963034E+04  1.963034E+04  1.659944E+17
     67     0 00:55:50  3.284436E-06  1.963034E+04  1.963034E+04  1.659944E+17
     77     0 01:04:10  4.000959E-06  1.963034E+04  1.963034E+04  1.659944E+17
     83     0 01:09:10  4.443723E-06  1.963034E+04  1.963034E+04  1.659944E+17
     93     0 01:17:30  5.199657E-06  1.963034E+04  1.963034E+04  1.659944E+17
     80     0 01:06:40  4.221227E-06  1.963034E+04  1.963034E+04  1.659944E+17
     69     0 00:57:30  3.425378E-06  1.963034E+04  1.963034E+04  1.659944E+17
     63     0 00:52:30  3.006304E-06  1.963034E+04  1.963034E+04  1.659944E+17
     68     0 00:56:40  3.354747E-06  1.963034E+04  1.963034E+04  1.659944E+17
     94     0 01:18:20  5.276310E-06  1.963034E+04  1.963034E+04  1.659944E+17
     78     0 01:05:00  4.074114E-06  1.963034E+04  1.963034E+04  1.659944E+17
     84     0 01:10:00  4.518366E-06  1.963034E+04  1.963034E+04  1.659944E+17
     70     0 00:58:20  3.496321E-06  1.963034E+04  1.963034E+04  1.659944E+17
     81     0 01:07:30  4.295169E-06  1.963034E+04  1.963034E+04  1.659944E+17
     64     0 00:53:20  3.075357E-06  1.963034E+04  1.963034E+04  1.659944E+17
     69     0 00:57:30  3.425378E-06  1.963034E+04  1.963034E+04  1.659944E+17
     95     0 01:19:10  5.353176E-06  1.963034E+04  1.963034E+04  1.659944E+17
     85     0 01:10:50  4.593213E-06  1.963034E+04  1.963034E+04  1.659944E+17
     79     0 01:05:50  4.147571E-06  1.963034E+04  1.963034E+04  1.659944E+17
     71     0 00:59:10  3.567524E-06  1.963034E+04  1.963034E+04  1.659944E+17
     82     0 01:08:20  4.369321E-06  1.963034E+04  1.963034E+04  1.659944E+17
     65     0 00:54:10  3.144741E-06  1.963034E+04  1.963034E+04  1.659944E+17
     70     0 00:58:20  3.496321E-06  1.963034E+04  1.963034E+04  1.659944E+17
     96     0 01:20:00  5.430248E-06  1.963034E+04  1.963034E+04  1.659944E+17
     80     0 01:06:40  4.221227E-06  1.963034E+04  1.963034E+04  1.659944E+17
     86     0 01:11:40  4.668325E-06  1.963034E+04  1.963034E+04  1.659944E+17
     72     0 01:00:00  3.639069E-06  1.963034E+04  1.963034E+04  1.659944E+17
     83     0 01:09:10  4.443723E-06  1.963034E+04  1.963034E+04  1.659944E+17
     66     0 00:55:00  3.214396E-06  1.963034E+04  1.963034E+04  1.659944E+17
     97     0 01:20:50  5.507456E-06  1.963034E+04  1.963034E+04  1.659944E+17
     71     0 00:59:10  3.567524E-06  1.963034E+04  1.963034E+04  1.659944E+17
     81     0 01:07:30  4.295169E-06  1.963034E+04  1.963034E+04  1.659944E+17
     73     0 01:00:50  3.710875E-06  1.963034E+04  1.963034E+04  1.659944E+17
     87     0 01:12:30  4.743595E-06  1.963034E+04  1.963034E+04  1.659944E+17
     84     0 01:10:00  4.518366E-06  1.963034E+04  1.963034E+04  1.659944E+17
     67     0 00:55:50  3.284436E-06  1.963034E+04  1.963034E+04  1.659944E+17
     72     0 01:00:00  3.639069E-06  1.963034E+04  1.963034E+04  1.659944E+17
     98     0 01:21:40  5.584857E-06  1.963034E+04  1.963034E+04  1.659944E+17
     88     0 01:13:20  4.819109E-06  1.963034E+04  1.963034E+04  1.659944E+17
     74     0 01:01:40  3.782992E-06  1.963034E+04  1.963034E+04  1.659944E+17
     82     0 01:08:20  4.369321E-06  1.963034E+04  1.963034E+04  1.659944E+17
     85     0 01:10:50  4.593213E-06  1.963034E+04  1.963034E+04  1.659944E+17
     99     0 01:22:30  5.662435E-06  1.963034E+04  1.963034E+04  1.659944E+17
     73     0 01:00:50  3.710875E-06  1.963034E+04  1.963034E+04  1.659944E+17
     68     0 00:56:40  3.354747E-06  1.963034E+04  1.963034E+04  1.659944E+17
     75     0 01:02:30  3.855366E-06  1.963034E+04  1.963034E+04  1.659944E+17
     83     0 01:09:10  4.443723E-06  1.963034E+04  1.963034E+04  1.659944E+17
     89     0 01:14:10  4.894794E-06  1.963034E+04  1.963034E+04  1.659944E+17
     86     0 01:11:40  4.668325E-06  1.963034E+04  1.963034E+04  1.659944E+17
    100     0 01:23:20  5.740154E-06  1.963034E+04  1.963034E+04  1.659944E+17
     74     0 01:01:40  3.782992E-06  1.963034E+04  1.963034E+04  1.659944E+17
     69     0 00:57:30  3.425378E-06  1.963034E+04  1.963034E+04  1.659944E+17
     76     0 01:03:20  3.928014E-06  1.963034E+04  1.963034E+04  1.659944E+17
     84     0 01:10:00  4.518366E-06  1.963034E+04  1.963034E+04  1.659944E+17

 Elapsed CPU time (seconds):


 ROMS/TOMS - Output NetCDF summary for Grid 01:

 ROMS/TOMS: DONE... 
     90     0 01:15:00  4.970707E-06  1.963034E+04  1.963034E+04  1.659944E+17
     87     0 01:12:30  4.743595E-06  1.963034E+04  1.963034E+04  1.659944E+17
     75     0 01:02:30  3.855366E-06  1.963034E+04  1.963034E+04  1.659944E+17
     70     0 00:58:20  3.496321E-06  1.963034E+04  1.963034E+04  1.659944E+17
     85     0 01:10:50  4.593213E-06  1.963034E+04  1.963034E+04  1.659944E+17
     88     0 01:13:20  4.819109E-06  1.963034E+04  1.963034E+04  1.659944E+17
     77     0 01:04:10  4.000959E-06  1.963034E+04  1.963034E+04  1.659944E+17
     91     0 01:15:50  5.046849E-06  1.963034E+04  1.963034E+04  1.659944E+17
     76     0 01:03:20  3.928014E-06  1.963034E+04  1.963034E+04  1.659944E+17
     89     0 01:14:10  4.894794E-06  1.963034E+04  1.963034E+04  1.659944E+17
     86     0 01:11:40  4.668325E-06  1.963034E+04  1.963034E+04  1.659944E+17
     71     0 00:59:10  3.567524E-06  1.963034E+04  1.963034E+04  1.659944E+17
     92     0 01:16:40  5.123144E-06  1.963034E+04  1.963034E+04  1.659944E+17
     78     0 01:05:00  4.074114E-06  1.963034E+04  1.963034E+04  1.659944E+17
     90     0 01:15:00  4.970707E-06  1.963034E+04  1.963034E+04  1.659944E+17
     77     0 01:04:10  4.000959E-06  1.963034E+04  1.963034E+04  1.659944E+17
     87     0 01:12:30  4.743595E-06  1.963034E+04  1.963034E+04  1.659944E+17
     72     0 01:00:00  3.639069E-06  1.963034E+04  1.963034E+04  1.659944E+17
     93     0 01:17:30  5.199657E-06  1.963034E+04  1.963034E+04  1.659944E+17
     79     0 01:05:50  4.147571E-06  1.963034E+04  1.963034E+04  1.659944E+17
     91     0 01:15:50  5.046849E-06  1.963034E+04  1.963034E+04  1.659944E+17
     88     0 01:13:20  4.819109E-06  1.963034E+04  1.963034E+04  1.659944E+17
     78     0 01:05:00  4.074114E-06  1.963034E+04  1.963034E+04  1.659944E+17
     73     0 01:00:50  3.710875E-06  1.963034E+04  1.963034E+04  1.659944E+17
     94     0 01:18:20  5.276310E-06  1.963034E+04  1.963034E+04  1.659944E+17
     80     0 01:06:40  4.221227E-06  1.963034E+04  1.963034E+04  1.659944E+17
     92     0 01:16:40  5.123144E-06  1.963034E+04  1.963034E+04  1.659944E+17
     89     0 01:14:10  4.894794E-06  1.963034E+04  1.963034E+04  1.659944E+17
     79     0 01:05:50  4.147571E-06  1.963034E+04  1.963034E+04  1.659944E+17
     74     0 01:01:40  3.782992E-06  1.963034E+04  1.963034E+04  1.659944E+17
     93     0 01:17:30  5.199657E-06  1.963034E+04  1.963034E+04  1.659944E+17
     95     0 01:19:10  5.353176E-06  1.963034E+04  1.963034E+04  1.659944E+17
     81     0 01:07:30  4.295169E-06  1.963034E+04  1.963034E+04  1.659944E+17
     90     0 01:15:00  4.970707E-06  1.963034E+04  1.963034E+04  1.659944E+17
     80     0 01:06:40  4.221227E-06  1.963034E+04  1.963034E+04  1.659944E+17
     94     0 01:18:20  5.276310E-06  1.963034E+04  1.963034E+04  1.659944E+17
     75     0 01:02:30  3.855366E-06  1.963034E+04  1.963034E+04  1.659944E+17
     96     0 01:20:00  5.430248E-06  1.963034E+04  1.963034E+04  1.659944E+17
     82     0 01:08:20  4.369321E-06  1.963034E+04  1.963034E+04  1.659944E+17
     91     0 01:15:50  5.046849E-06  1.963034E+04  1.963034E+04  1.659944E+17
     81     0 01:07:30  4.295169E-06  1.963034E+04  1.963034E+04  1.659944E+17
     95     0 01:19:10  5.353176E-06  1.963034E+04  1.963034E+04  1.659944E+17
     76     0 01:03:20  3.928014E-06  1.963034E+04  1.963034E+04  1.659944E+17
     92     0 01:16:40  5.123144E-06  1.963034E+04  1.963034E+04  1.659944E+17
     97     0 01:20:50  5.507456E-06  1.963034E+04  1.963034E+04  1.659944E+17
     83     0 01:09:10  4.443723E-06  1.963034E+04  1.963034E+04  1.659944E+17
     96     0 01:20:00  5.430248E-06  1.963034E+04  1.963034E+04  1.659944E+17
     82     0 01:08:20  4.369321E-06  1.963034E+04  1.963034E+04  1.659944E+17
     77     0 01:04:10  4.000959E-06  1.963034E+04  1.963034E+04  1.659944E+17
     93     0 01:17:30  5.199657E-06  1.963034E+04  1.963034E+04  1.659944E+17
     97     0 01:20:50  5.507456E-06  1.963034E+04  1.963034E+04  1.659944E+17
     98     0 01:21:40  5.584857E-06  1.963034E+04  1.963034E+04  1.659944E+17
     84     0 01:10:00  4.518366E-06  1.963034E+04  1.963034E+04  1.659944E+17
     83     0 01:09:10  4.443723E-06  1.963034E+04  1.963034E+04  1.659944E+17
     94     0 01:18:20  5.276310E-06  1.963034E+04  1.963034E+04  1.659944E+17
     98     0 01:21:40  5.584857E-06  1.963034E+04  1.963034E+04  1.659944E+17
     78     0 01:05:00  4.074114E-06  1.963034E+04  1.963034E+04  1.659944E+17
     99     0 01:22:30  5.662435E-06  1.963034E+04  1.963034E+04  1.659944E+17
     85     0 01:10:50  4.593213E-06  1.963034E+04  1.963034E+04  1.659944E+17
     84     0 01:10:00  4.518366E-06  1.963034E+04  1.963034E+04  1.659944E+17
     99     0 01:22:30  5.662435E-06  1.963034E+04  1.963034E+04  1.659944E+17
     95     0 01:19:10  5.353176E-06  1.963034E+04  1.963034E+04  1.659944E+17
     79     0 01:05:50  4.147571E-06  1.963034E+04  1.963034E+04  1.659944E+17
    100     0 01:23:20  5.740154E-06  1.963034E+04  1.963034E+04  1.659944E+17
     85     0 01:10:50  4.593213E-06  1.963034E+04  1.963034E+04  1.659944E+17
     86     0 01:11:40  4.668325E-06  1.963034E+04  1.963034E+04  1.659944E+17

 Elapsed CPU time (seconds):


 ROMS/TOMS - Output NetCDF summary for Grid 01:

 ROMS/TOMS: DONE... 
    100     0 01:23:20  5.740154E-06  1.963034E+04  1.963034E+04  1.659944E+17

 Elapsed CPU time (seconds):


 ROMS/TOMS - Output NetCDF summary for Grid 01:

 ROMS/TOMS: DONE... 
     96     0 01:20:00  5.430248E-06  1.963034E+04  1.963034E+04  1.659944E+17
     80     0 01:06:40  4.221227E-06  1.963034E+04  1.963034E+04  1.659944E+17
     87     0 01:12:30  4.743595E-06  1.963034E+04  1.963034E+04  1.659944E+17
     86     0 01:11:40  4.668325E-06  1.963034E+04  1.963034E+04  1.659944E+17
     97     0 01:20:50  5.507456E-06  1.963034E+04  1.963034E+04  1.659944E+17
     81     0 01:07:30  4.295169E-06  1.963034E+04  1.963034E+04  1.659944E+17
     88     0 01:13:20  4.819109E-06  1.963034E+04  1.963034E+04  1.659944E+17
     87     0 01:12:30  4.743595E-06  1.963034E+04  1.963034E+04  1.659944E+17
     98     0 01:21:40  5.584857E-06  1.963034E+04  1.963034E+04  1.659944E+17
     82     0 01:08:20  4.369321E-06  1.963034E+04  1.963034E+04  1.659944E+17
     89     0 01:14:10  4.894794E-06  1.963034E+04  1.963034E+04  1.659944E+17
     88     0 01:13:20  4.819109E-06  1.963034E+04  1.963034E+04  1.659944E+17
     99     0 01:22:30  5.662435E-06  1.963034E+04  1.963034E+04  1.659944E+17
     83     0 01:09:10  4.443723E-06  1.963034E+04  1.963034E+04  1.659944E+17
     90     0 01:15:00  4.970707E-06  1.963034E+04  1.963034E+04  1.659944E+17
     89     0 01:14:10  4.894794E-06  1.963034E+04  1.963034E+04  1.659944E+17
    100     0 01:23:20  5.740154E-06  1.963034E+04  1.963034E+04  1.659944E+17
     84     0 01:10:00  4.518366E-06  1.963034E+04  1.963034E+04  1.659944E+17

 Elapsed CPU time (seconds):


 ROMS/TOMS - Output NetCDF summary for Grid 01:

 ROMS/TOMS: DONE... 
     91     0 01:15:50  5.046849E-06  1.963034E+04  1.963034E+04  1.659944E+17
     90     0 01:15:00  4.970707E-06  1.963034E+04  1.963034E+04  1.659944E+17
     85     0 01:10:50  4.593213E-06  1.963034E+04  1.963034E+04  1.659944E+17
     92     0 01:16:40  5.123144E-06  1.963034E+04  1.963034E+04  1.659944E+17
     91     0 01:15:50  5.046849E-06  1.963034E+04  1.963034E+04  1.659944E+17
     86     0 01:11:40  4.668325E-06  1.963034E+04  1.963034E+04  1.659944E+17
     93     0 01:17:30  5.199657E-06  1.963034E+04  1.963034E+04  1.659944E+17
     92     0 01:16:40  5.123144E-06  1.963034E+04  1.963034E+04  1.659944E+17
     87     0 01:12:30  4.743595E-06  1.963034E+04  1.963034E+04  1.659944E+17
     94     0 01:18:20  5.276310E-06  1.963034E+04  1.963034E+04  1.659944E+17
     93     0 01:17:30  5.199657E-06  1.963034E+04  1.963034E+04  1.659944E+17
     88     0 01:13:20  4.819109E-06  1.963034E+04  1.963034E+04  1.659944E+17
     95     0 01:19:10  5.353176E-06  1.963034E+04  1.963034E+04  1.659944E+17
     94     0 01:18:20  5.276310E-06  1.963034E+04  1.963034E+04  1.659944E+17
     89     0 01:14:10  4.894794E-06  1.963034E+04  1.963034E+04  1.659944E+17
     96     0 01:20:00  5.430248E-06  1.963034E+04  1.963034E+04  1.659944E+17
     95     0 01:19:10  5.353176E-06  1.963034E+04  1.963034E+04  1.659944E+17
     90     0 01:15:00  4.970707E-06  1.963034E+04  1.963034E+04  1.659944E+17
     97     0 01:20:50  5.507456E-06  1.963034E+04  1.963034E+04  1.659944E+17
     96     0 01:20:00  5.430248E-06  1.963034E+04  1.963034E+04  1.659944E+17
     91     0 01:15:50  5.046849E-06  1.963034E+04  1.963034E+04  1.659944E+17
     98     0 01:21:40  5.584857E-06  1.963034E+04  1.963034E+04  1.659944E+17
     97     0 01:20:50  5.507456E-06  1.963034E+04  1.963034E+04  1.659944E+17
     92     0 01:16:40  5.123144E-06  1.963034E+04  1.963034E+04  1.659944E+17
     99     0 01:22:30  5.662435E-06  1.963034E+04  1.963034E+04  1.659944E+17
     98     0 01:21:40  5.584857E-06  1.963034E+04  1.963034E+04  1.659944E+17
     93     0 01:17:30  5.199657E-06  1.963034E+04  1.963034E+04  1.659944E+17
    100     0 01:23:20  5.740154E-06  1.963034E+04  1.963034E+04  1.659944E+17

 Elapsed CPU time (seconds):


 ROMS/TOMS - Output NetCDF summary for Grid 01:

 ROMS/TOMS: DONE... 
     94     0 01:18:20  5.276310E-06  1.963034E+04  1.963034E+04  1.659944E+17
     99     0 01:22:30  5.662435E-06  1.963034E+04  1.963034E+04  1.659944E+17
     95     0 01:19:10  5.353176E-06  1.963034E+04  1.963034E+04  1.659944E+17
    100     0 01:23:20  5.740154E-06  1.963034E+04  1.963034E+04  1.659944E+17

 Elapsed CPU time (seconds):


 ROMS/TOMS - Output NetCDF summary for Grid 01:

 ROMS/TOMS: DONE... 
     96     0 01:20:00  5.430248E-06  1.963034E+04  1.963034E+04  1.659944E+17
     97     0 01:20:50  5.507456E-06  1.963034E+04  1.963034E+04  1.659944E+17
     98     0 01:21:40  5.584857E-06  1.963034E+04  1.963034E+04  1.659944E+17
     99     0 01:22:30  5.662435E-06  1.963034E+04  1.963034E+04  1.659944E+17
    100     0 01:23:20  5.740154E-06  1.963034E+04  1.963034E+04  1.659944E+17

 Elapsed CPU time (seconds):


 ROMS/TOMS - Output NetCDF summary for Grid 01:

 ROMS/TOMS: DONE... 
Execution File:   /home/ybmoon/workloads/cpu2017/benchspec/CPU/654.roms_s/run/run_base_refspeed_gcc-baseline-o2-m64.0000/sroms_base.gcc-baseline-o2-m64
Num of Programs:  8
Program Path:     /home/ybmoon/workloads/cpu2017/benchspec/CPU/654.roms_s/run/run_base_refspeed_gcc-baseline-o2-m64.0000/
Progarm Options:  /home/ybmoon/workloads/cpu2017/benchspec/CPU/654.roms_s/run/run_base_refspeed_gcc-baseline-o2-m64.0000/sroms_base.gcc-baseline-o2-m64
i:1, argv[5]:$
argv:$
input:ocean_benchmark3.in.x
tmp_node: 0
Local DRAM Allocation
Core: 0
Directory [0]:   /home/ybmoon/workloads/cpu2017/benchspec/CPU/654.roms_s/run/run_base_refspeed_gcc-baseline-o2-m64.0000/
exe_path: /home/ybmoon/workloads/cpu2017/benchspec/CPU/654.roms_s/run/run_base_refspeed_gcc-baseline-o2-m64.0000/sroms_base.gcc-baseline-o2-m64
Core: 1
Directory [1]:   /home/ybmoon/workloads/cpu2017/benchspec/CPU/654.roms_s/run/run_base_refspeed_gcc-baseline-o2-m64.0000/
exe_path: /home/ybmoon/workloads/cpu2017/benchspec/CPU/654.roms_s/run/run_base_refspeed_gcc-baseline-o2-m64.0000/sroms_base.gcc-baseline-o2-m64
Core: 2
Directory [2]:   /home/ybmoon/workloads/cpu2017/benchspec/CPU/654.roms_s/run/run_base_refspeed_gcc-baseline-o2-m64.0000/
exe_path: /home/ybmoon/workloads/cpu2017/benchspec/CPU/654.roms_s/run/run_base_refspeed_gcc-baseline-o2-m64.0000/sroms_base.gcc-baseline-o2-m64
Core: 3
Directory [3]:   /home/ybmoon/workloads/cpu2017/benchspec/CPU/654.roms_s/run/run_base_refspeed_gcc-baseline-o2-m64.0000/
exe_path: /home/ybmoon/workloads/cpu2017/benchspec/CPU/654.roms_s/run/run_base_refspeed_gcc-baseline-o2-m64.0000/sroms_base.gcc-baseline-o2-m64
Core: 4
Directory [4]:   /home/ybmoon/workloads/cpu2017/benchspec/CPU/654.roms_s/run/run_base_refspeed_gcc-baseline-o2-m64.0000/
exe_path: /home/ybmoon/workloads/cpu2017/benchspec/CPU/654.roms_s/run/run_base_refspeed_gcc-baseline-o2-m64.0000/sroms_base.gcc-baseline-o2-m64
Core: 5
Directory [5]:   /home/ybmoon/workloads/cpu2017/benchspec/CPU/654.roms_s/run/run_base_refspeed_gcc-baseline-o2-m64.0000/
exe_path: /home/ybmoon/workloads/cpu2017/benchspec/CPU/654.roms_s/run/run_base_refspeed_gcc-baseline-o2-m64.0000/sroms_base.gcc-baseline-o2-m64
Core: 6
Directory [6]:   /home/ybmoon/workloads/cpu2017/benchspec/CPU/654.roms_s/run/run_base_refspeed_gcc-baseline-o2-m64.0000/
exe_path: /home/ybmoon/workloads/cpu2017/benchspec/CPU/654.roms_s/run/run_base_refspeed_gcc-baseline-o2-m64.0000/sroms_base.gcc-baseline-o2-m64
Core: 7
Directory [7]:   /home/ybmoon/workloads/cpu2017/benchspec/CPU/654.roms_s/run/run_base_refspeed_gcc-baseline-o2-m64.0000/
exe_path: /home/ybmoon/workloads/cpu2017/benchspec/CPU/654.roms_s/run/run_base_refspeed_gcc-baseline-o2-m64.0000/sroms_base.gcc-baseline-o2-m64
Process Start
Process Start
Process Start
Process Start
Process Start
Process Start
Process Start
Process Start
Wait PID: 8929
Wait PID: 8931
Wait PID: 8932
Wait PID: 8933
Wait PID: 8934
Wait PID: 8935
Wait PID: 8936
Wait PID: 8937
Execution Time (0) => 16744508167618.00 ns
Execution Time (12) => 19213008576148.00 ns
Execution Time (8) => 20653661778247.00 ns
Execution Time (20) => 20675713365408.00 ns
Execution Time (28) => 21073139095389.00 ns
Execution Time (16) => 21894402120317.00 ns
Execution Time (4) => 22001068662753.00 ns
Execution Time (24) => 22298409456425.00 ns
('Full Command: ', '/scale/cal/home/ybmoon/migration/workloads/gap-spec-wrapper/second-wrapper/second_wrapper 0 8 /home/ybmoon/workloads/cpu2017/benchspec/CPU/654.roms_s/run/run_base_refspeed_gcc-baseline-o2-m64.0000/ /home/ybmoon/workloads/cpu2017/benchspec/CPU/654.roms_s/run/run_base_refspeed_gcc-baseline-o2-m64.0000/sroms_base.gcc-baseline-o2-m64  $ ocean_benchmark3.in.x ')
execution_time 22298.86 (s)
